
.MODEL KT208K PNP (
+   IS =  7.761e-19
+   BF =  180
+   BR =  4
+   RB =  0
+   RE =  0
+   RC =  1.2
+   CJS =  0
+   CJE =  2.371e-11
+   CJC =  1.058e-10
+   VJE =  0.75
+   VJC =  0.75
+   TF =  3.125e-08
+   TR =  4e-08
+   MJE =  0.333
+   MJC =  0.333
+   VA =  50
+   ISE =  1e-07
+   IKF =  0.2
+   NE =  1.5
+   NF =  1
+   NR =  1
+   VAR =  1e+30
+   IKR =  0.15
+   ISC =  1e-07
+   NC =  2
+   IRB =  1e+30
+   RBM =  0
+   XTF =  1.2
+   VTF =  50
+   ITF =  0.2
+   PTF =  0
+   XCJC =  1
+   VJS =  0.75
+   MJS =  0
+   XTB =  1.5
+   EG =  1.11
+   XTI =  3
+   KF =  0
+   AF =  1
+   FC =  0.5
+   TNOM =  27
)

.MODEL kt3107a PNP (
+   IS =  6.545e-15
+   BF =  105.5
+   BR =  1.62
+   RB =  39.1
+   RE =  0
+   RC =  0.71
+   CJS =  0
+   CJE =  1.26e-11
+   CJC =  1.28e-11
+   VJE =  0.69
+   VJC =  0.65
+   TF =  4.775e-10
+   TR =  3.05e-08
+   MJE =  0.35
+   MJC =  0.33
+   VA =  86.5
+   ISE =  7.735e-09
+   IKF =  0.186
+   NE =  8.56
+   NF =  1
+   NR =  1
+   VAR =  32
+   IKR =  0.012
+   ISC =  3.35e-12
+   NC =  2
+   IRB =  1e+30
+   RBM =  0
+   XTF =  2
+   VTF =  35
+   ITF =  0.056
+   PTF =  0
+   XCJC =  1
+   VJS =  0.75
+   MJS =  0
+   XTB =  1.5
+   EG =  1.11
+   XTI =  3
+   KF =  0
+   AF =  1
+   FC =  0.5
+   TNOM =  27
)

.MODEL kt3107b PNP (
+   IS =  2.11e-15
+   BF =  145.2
+   BR =  7.573
+   RB =  25.5
+   RE =  0
+   RC =  0.75
+   CJS =  0
+   CJE =  1.301e-11
+   CJC =  1.186e-11
+   VJE =  0.69
+   VJC =  0.69
+   TF =  4.74e-10
+   TR =  2.011e-08
+   MJE =  0.35
+   MJC =  0.33
+   VA =  68.5
+   ISE =  7.34e-12
+   IKF =  0.242
+   NE =  2.37
+   NF =  1
+   NR =  1
+   VAR =  32
+   IKR =  0.025
+   ISC =  1.55e-12
+   NC =  2
+   IRB =  1e+30
+   RBM =  0
+   XTF =  1
+   VTF =  25
+   ITF =  0.15
+   PTF =  0
+   XCJC =  1
+   VJS =  0.75
+   MJS =  0
+   XTB =  1.5
+   EG =  1.11
+   XTI =  3
+   KF =  0
+   AF =  1
+   FC =  0.5
+   TNOM =  27
)

.MODEL KT3107D PNP (
+   IS =  1e-14
+   BF =  460
+   BR =  1
+   RB =  5
+   RE =  0.5
+   RC =  0
+   CJS =  0
+   CJE =  1.4e-11
+   CJC =  1e-11
+   VJE =  0.75
+   VJC =  0.75
+   TF =  6e-10
+   TR =  1e-07
+   MJE =  0.33
+   MJC =  0.33
+   VA =  50
+   ISE =  5e-08
+   IKF =  0.1
+   NE =  4
+   NF =  1
+   NR =  1
+   VAR =  6
+   IKR =  1e+30
+   ISC =  5e-08
+   NC =  4
+   IRB =  1e+30
+   RBM =  0
+   XTF =  0
+   VTF =  1e+30
+   ITF =  0
+   PTF =  0
+   XCJC =  1
+   VJS =  0.75
+   MJS =  0
+   XTB =  0
+   EG =  1.11
+   XTI =  3
+   KF =  0
+   AF =  1
+   FC =  0.5
+   TNOM =  27
)

.MODEL KT3107E PNP (
+   IS =  1e-14
+   BF =  220
+   BR =  1
+   RB =  5
+   RE =  0.5
+   RC =  0
+   CJS =  0
+   CJE =  1.4e-11
+   CJC =  1e-11
+   VJE =  0.75
+   VJC =  0.75
+   TF =  6e-10
+   TR =  1e-07
+   MJE =  0.33
+   MJC =  0.33
+   VA =  45
+   ISE =  5e-08
+   IKF =  0.1
+   NE =  4
+   NF =  1
+   NR =  1
+   VAR =  3.5
+   IKR =  1e+30
+   ISC =  5e-08
+   NC =  4
+   IRB =  1e+30
+   RBM =  0
+   XTF =  0
+   VTF =  1e+30
+   ITF =  0
+   PTF =  0
+   XCJC =  1
+   VJS =  0.75
+   MJS =  0
+   XTB =  0
+   EG =  1.11
+   XTI =  3
+   KF =  0
+   AF =  1
+   FC =  0.5
+   TNOM =  27
)

.MODEL KT3107G PNP (
+   IS =  1e-14
+   BF =  220
+   BR =  1
+   RB =  5
+   RE =  0.5
+   RC =  0
+   CJS =  0
+   CJE =  1.4e-11
+   CJC =  1e-11
+   VJE =  0.75
+   VJC =  0.75
+   TF =  6e-10
+   TR =  1e-07
+   MJE =  0.33
+   MJC =  0.33
+   VA =  50
+   ISE =  0
+   IKF =  0.1
+   NE =  4
+   NF =  1
+   NR =  1
+   VAR =  6
+   IKR =  1e+30
+   ISC =  5e-08
+   NC =  4
+   IRB =  1e+30
+   RBM =  0
+   XTF =  0
+   VTF =  1e+30
+   ITF =  0
+   PTF =  0
+   XCJC =  1
+   VJS =  0.75
+   MJS =  0
+   XTB =  0
+   EG =  1.11
+   XTI =  3
+   KF =  0
+   AF =  1
+   FC =  0.5
+   TNOM =  27
)

.MODEL KT3107GE PNP (
+   IS =  1e-14
+   BF =  460
+   BR =  1
+   RB =  5
+   RE =  0.5
+   RC =  0
+   CJS =  0
+   CJE =  1.4e-11
+   CJC =  1e-11
+   VJE =  0.75
+   VJC =  0.75
+   TF =  6e-10
+   TR =  1e-07
+   MJE =  0.33
+   MJC =  0.33
+   VA =  45
+   ISE =  5e-08
+   IKF =  0.1
+   NE =  4
+   NF =  1
+   NR =  1
+   VAR =  3.5
+   IKR =  1e+30
+   ISC =  5e-08
+   NC =  4
+   IRB =  1e+30
+   RBM =  0
+   XTF =  0
+   VTF =  1e+30
+   ITF =  0
+   PTF =  0
+   XCJC =  1
+   VJS =  0.75
+   MJS =  0
+   XTB =  0
+   EG =  1.11
+   XTI =  3
+   KF =  0
+   AF =  1
+   FC =  0.5
+   TNOM =  27
)

.MODEL KT3107I PNP (
+   IS =  1e-14
+   BF =  460
+   BR =  1
+   RB =  5
+   RE =  0.5
+   RC =  0
+   CJS =  0
+   CJE =  1.4e-11
+   CJC =  1e-11
+   VJE =  0.75
+   VJC =  0.75
+   TF =  6e-10
+   TR =  1e-07
+   MJE =  0.33
+   MJC =  0.33
+   VA =  70
+   ISE =  5e-08
+   IKF =  0.1
+   NE =  4
+   NF =  1
+   NR =  1
+   VAR =  8
+   IKR =  1e+30
+   ISC =  5e-08
+   NC =  4
+   IRB =  1e+30
+   RBM =  0
+   XTF =  0
+   VTF =  1e+30
+   ITF =  0
+   PTF =  0
+   XCJC =  1
+   VJS =  0.75
+   MJS =  0
+   XTB =  0
+   EG =  1.11
+   XTI =  3
+   KF =  0
+   AF =  1
+   FC =  0.5
+   TNOM =  27
)

.MODEL KT3107K PNP (
+   IS =  1e-14
+   BF =  800
+   BR =  1
+   RB =  5
+   RE =  0.5
+   RC =  0
+   CJS =  0
+   CJE =  1.4e-11
+   CJC =  1e-11
+   VJE =  0.75
+   VJC =  0.75
+   TF =  6e-10
+   TR =  1e-07
+   MJE =  0.33
+   MJC =  0.33
+   VA =  50
+   ISE =  5e-08
+   IKF =  0.1
+   NE =  4
+   NF =  1
+   NR =  1
+   VAR =  6
+   IKR =  1e+30
+   ISC =  5e-08
+   NC =  4
+   IRB =  1e+30
+   RBM =  0
+   XTF =  0
+   VTF =  1e+30
+   ITF =  0
+   PTF =  0
+   XCJC =  1
+   VJS =  0.75
+   MJS =  0
+   XTB =  0
+   EG =  1.11
+   XTI =  3
+   KF =  0
+   AF =  1
+   FC =  0.5
+   TNOM =  27
)

.MODEL KT3107L PNP (
+   IS =  1e-14
+   BF =  800
+   BR =  1
+   RB =  5
+   RE =  0.5
+   RC =  0
+   CJS =  0
+   CJE =  1.4e-11
+   CJC =  1e-11
+   VJE =  0.75
+   VJC =  0.75
+   TF =  6e-10
+   TR =  1e-07
+   MJE =  0.33
+   MJC =  0.33
+   VA =  45
+   ISE =  0
+   IKF =  0.1
+   NE =  4
+   NF =  1
+   NR =  1
+   VAR =  3.5
+   IKR =  1e+30
+   ISC =  5e-08
+   NC =  4
+   IRB =  1e+30
+   RBM =  0
+   XTF =  0
+   VTF =  1e+30
+   ITF =  0
+   PTF =  0
+   XCJC =  1
+   VJS =  0.75
+   MJS =  0
+   XTB =  0
+   EG =  1.11
+   XTI =  3
+   KF =  0
+   AF =  1
+   FC =  0.5
+   TNOM =  27
)

.MODEL KT3107V PNP (
+   IS =  1e-14
+   BF =  140
+   BR =  1
+   RB =  5
+   RE =  0.5
+   RC =  0
+   CJS =  0
+   CJE =  1.4e-11
+   CJC =  1e-11
+   VJE =  0.75
+   VJC =  0.75
+   TF =  6e-10
+   TR =  1e-07
+   MJE =  0.33
+   MJC =  0.33
+   VA =  50
+   ISE =  5e-08
+   IKF =  0.1
+   NE =  4
+   NF =  1
+   NR =  1
+   VAR =  6
+   IKR =  1e+30
+   ISC =  5e-08
+   NC =  4
+   IRB =  1e+30
+   RBM =  0
+   XTF =  0
+   VTF =  1e+30
+   ITF =  0
+   PTF =  0
+   XCJC =  1
+   VJS =  0.75
+   MJS =  0
+   XTB =  0
+   EG =  1.11
+   XTI =  3
+   KF =  0
+   AF =  1
+   FC =  0.5
+   TNOM =  27
)

.MODEL kt351a PNP (
+   IS =  4.94e-15
+   BF =  91.56
+   BR =  1.215
+   RB =  75
+   RE =  0
+   RC =  0.44
+   CJS =  0
+   CJE =  2.448e-11
+   CJC =  1.505e-11
+   VJE =  0.65
+   VJC =  0.69
+   TF =  2.174e-10
+   TR =  2.236e-07
+   MJE =  0.33
+   MJC =  0.33
+   VA =  110
+   ISE =  1.44e-12
+   IKF =  1e+30
+   NE =  1.77
+   NF =  1
+   NR =  1
+   VAR =  25
+   IKR =  0.25
+   ISC =  1.45e-12
+   NC =  2
+   IRB =  1e+30
+   RBM =  0
+   XTF =  2
+   VTF =  35
+   ITF =  0.28
+   PTF =  0
+   XCJC =  1
+   VJS =  0.75
+   MJS =  0
+   XTB =  1.5
+   EG =  1.11
+   XTI =  3
+   KF =  0
+   AF =  1
+   FC =  0.5
+   TNOM =  27
)

.MODEL KT363A PNP (
+   IS =  4.654e-13
+   BF =  54.33
+   BR =  3
+   RB =  75
+   RE =  0
+   RC =  22
+   CJS =  0
+   CJE =  1e-12
+   CJC =  2.958e-12
+   VJE =  0.75
+   VJC =  0.75
+   TF =  4.316e-11
+   TR =  5e-11
+   MJE =  0.333
+   MJC =  0.333
+   VA =  18
+   ISE =  1.297e-08
+   IKF =  0.02
+   NE =  2.15
+   NF =  1
+   NR =  1
+   VAR =  1e+30
+   IKR =  0.025
+   ISC =  5e-08
+   NC =  2
+   IRB =  1e+30
+   RBM =  0
+   XTF =  1.2
+   VTF =  16
+   ITF =  0.02
+   PTF =  0
+   XCJC =  1
+   VJS =  0.75
+   MJS =  0
+   XTB =  1.5
+   EG =  1.11
+   XTI =  3
+   KF =  0
+   AF =  1
+   FC =  0.5
+   TNOM =  27
)

.MODEL KT364A PNP (
+   IS =  2.04e-15
+   BF =  45
+   BR =  1
+   RB =  0
+   RE =  0
+   RC =  0
+   CJS =  0
+   CJE =  1.4e-11
+   CJC =  7e-12
+   VJE =  0.75
+   VJC =  0.75
+   TF =  4.577e-10
+   TR =  1e-09
+   MJE =  0.333
+   MJC =  0.333
+   VA =  60
+   ISE =  5e-07
+   IKF =  0.2
+   NE =  1.5
+   NF =  1
+   NR =  1
+   VAR =  1e+30
+   IKR =  0
+   ISC =  1e-06
+   NC =  2
+   IRB =  1e+30
+   RBM =  0
+   XTF =  0
+   VTF =  1e+30
+   ITF =  0
+   PTF =  0
+   XCJC =  1
+   VJS =  0.75
+   MJS =  0
+   XTB =  1.5
+   EG =  1.11
+   XTI =  3
+   KF =  0
+   AF =  1
+   FC =  0.5
+   TNOM =  27
)

.MODEL KT364B PNP (
+   IS =  2.04e-15
+   BF =  80
+   BR =  1
+   RB =  0
+   RE =  0
+   RC =  0
+   CJS =  0
+   CJE =  1.4e-11
+   CJC =  7e-12
+   VJE =  0.75
+   VJC =  0.75
+   TF =  4.577e-10
+   TR =  1e-09
+   MJE =  0.333
+   MJC =  0.333
+   VA =  60
+   ISE =  5e-07
+   IKF =  0.2
+   NE =  1.5
+   NF =  1
+   NR =  1
+   VAR =  1e+30
+   IKR =  0
+   ISC =  1e-06
+   NC =  2
+   IRB =  1e+30
+   RBM =  0
+   XTF =  0
+   VTF =  1e+30
+   ITF =  0
+   PTF =  0
+   XCJC =  1
+   VJS =  0.75
+   MJS =  0
+   XTB =  1.5
+   EG =  1.11
+   XTI =  3
+   KF =  0
+   AF =  1
+   FC =  0.5
+   TNOM =  27
)

.MODEL KT364V PNP (
+   IS =  2.04e-15
+   BF =  200
+   BR =  1
+   RB =  0
+   RE =  0
+   RC =  0
+   CJS =  0
+   CJE =  1.4e-11
+   CJC =  7e-12
+   VJE =  0.75
+   VJC =  0.75
+   TF =  4.577e-10
+   TR =  1e-09
+   MJE =  0.333
+   MJC =  0.333
+   VA =  60
+   ISE =  5e-07
+   IKF =  0.2
+   NE =  1.5
+   NF =  1
+   NR =  1
+   VAR =  1e+30
+   IKR =  0
+   ISC =  1e-06
+   NC =  2
+   IRB =  1e+30
+   RBM =  0
+   XTF =  0
+   VTF =  1e+30
+   ITF =  0
+   PTF =  0
+   XCJC =  1
+   VJS =  0.75
+   MJS =  0
+   XTB =  1.5
+   EG =  1.11
+   XTI =  3
+   KF =  0
+   AF =  1
+   FC =  0.5
+   TNOM =  27
)

.MODEL KT375A PNP (
+   IS =  1e-14
+   BF =  100
+   BR =  1
+   RB =  5
+   RE =  0.5
+   RC =  1
+   CJS =  0
+   CJE =  1.5e-11
+   CJC =  5e-12
+   VJE =  0.75
+   VJC =  0.75
+   TF =  3e-10
+   TR =  2e-07
+   MJE =  0.33
+   MJC =  0.33
+   VA =  80
+   ISE =  1e-07
+   IKF =  0.1
+   NE =  4
+   NF =  1
+   NR =  1
+   VAR =  1e+30
+   IKR =  1e+30
+   ISC =  1e-07
+   NC =  4
+   IRB =  1e+30
+   RBM =  0
+   XTF =  0
+   VTF =  1e+30
+   ITF =  0
+   PTF =  0
+   XCJC =  1
+   VJS =  0.75
+   MJS =  0
+   XTB =  0
+   EG =  1.11
+   XTI =  3
+   KF =  1e-15
+   AF =  1
+   FC =  0.5
+   TNOM =  27
)

.MODEL KT375B PNP (
+   IS =  1e-14
+   BF =  280
+   BR =  1
+   RB =  5
+   RE =  0.5
+   RC =  1
+   CJS =  0
+   CJE =  1.5e-11
+   CJC =  5e-12
+   VJE =  0.75
+   VJC =  0.75
+   TF =  3e-10
+   TR =  2e-07
+   MJE =  0.33
+   MJC =  0.33
+   VA =  80
+   ISE =  1e-07
+   IKF =  0.1
+   NE =  4
+   NF =  1
+   NR =  1
+   VAR =  1e+30
+   IKR =  1e+30
+   ISC =  1e-07
+   NC =  4
+   IRB =  1e+30
+   RBM =  0
+   XTF =  0
+   VTF =  1e+30
+   ITF =  0
+   PTF =  0
+   XCJC =  1
+   VJS =  0.75
+   MJS =  0
+   XTB =  0
+   EG =  1.11
+   XTI =  3
+   KF =  1e-15
+   AF =  1
+   FC =  0.5
+   TNOM =  27
)

.MODEL KT375P PNP (
+   IS =  1e-14
+   BF =  280
+   BR =  1
+   RB =  5
+   RE =  0.5
+   RC =  1
+   CJS =  0
+   CJE =  1.5e-11
+   CJC =  5e-12
+   VJE =  0.75
+   VJC =  0.75
+   TF =  3e-10
+   TR =  2e-07
+   MJE =  0.33
+   MJC =  0.33
+   VA =  80
+   ISE =  1e-07
+   IKF =  0.1
+   NE =  4
+   NF =  1
+   NR =  1
+   VAR =  1e+30
+   IKR =  1e+30
+   ISC =  1e-07
+   NC =  4
+   IRB =  1e+30
+   RBM =  0
+   XTF =  0
+   VTF =  1e+30
+   ITF =  0
+   PTF =  0
+   XCJC =  1
+   VJS =  0.75
+   MJS =  0
+   XTB =  0
+   EG =  1.11
+   XTI =  3
+   KF =  1e-15
+   AF =  1
+   FC =  0.5
+   TNOM =  27
)

.MODEL KT830A PNP (
+   IS =  1.41e-13
+   BF =  25
+   BR =  1
+   RB =  0
+   RE =  0
+   RC =  0
+   CJS =  0
+   CJE =  2.1e-10
+   CJC =  1.8e-10
+   VJE =  0.75
+   VJC =  0.75
+   TF =  3.177e-08
+   TR =  1e-08
+   MJE =  0.333
+   MJC =  0.333
+   VA =  100
+   ISE =  0.0001
+   IKF =  1.5
+   NE =  1.5
+   NF =  1
+   NR =  1
+   VAR =  1e+30
+   IKR =  0
+   ISC =  0.0001
+   NC =  2
+   IRB =  1e+30
+   RBM =  0
+   XTF =  1.3
+   VTF =  100
+   ITF =  1.5
+   PTF =  0
+   XCJC =  1
+   VJS =  0.75
+   MJS =  0
+   XTB =  1.5
+   EG =  1.11
+   XTI =  3
+   KF =  0
+   AF =  1
+   FC =  0.5
+   TNOM =  27
)

.MODEL KT830B PNP (
+   IS =  1.41e-13
+   BF =  25
+   BR =  1
+   RB =  0
+   RE =  0
+   RC =  0
+   CJS =  0
+   CJE =  2.1e-10
+   CJC =  1.8e-10
+   VJE =  0.75
+   VJC =  0.75
+   TF =  3.177e-08
+   TR =  1e-08
+   MJE =  0.333
+   MJC =  0.333
+   VA =  100
+   ISE =  0.0001
+   IKF =  1.5
+   NE =  1.5
+   NF =  1
+   NR =  1
+   VAR =  1e+30
+   IKR =  0
+   ISC =  0.0001
+   NC =  2
+   IRB =  1e+30
+   RBM =  0
+   XTF =  1.3
+   VTF =  100
+   ITF =  1.5
+   PTF =  0
+   XCJC =  1
+   VJS =  0.75
+   MJS =  0
+   XTB =  1.5
+   EG =  1.11
+   XTI =  3
+   KF =  0
+   AF =  1
+   FC =  0.5
+   TNOM =  27
)

.MODEL KT830G PNP (
+   IS =  1.41e-13
+   BF =  20
+   BR =  1
+   RB =  0
+   RE =  0
+   RC =  0
+   CJS =  0
+   CJE =  2.1e-10
+   CJC =  1.8e-10
+   VJE =  0.75
+   VJC =  0.75
+   TF =  3.177e-08
+   TR =  1e-08
+   MJE =  0.333
+   MJC =  0.333
+   VA =  100
+   ISE =  0.0001
+   IKF =  1.5
+   NE =  1.5
+   NF =  1
+   NR =  1
+   VAR =  1e+30
+   IKR =  0
+   ISC =  0.0001
+   NC =  2
+   IRB =  1e+30
+   RBM =  0
+   XTF =  1.3
+   VTF =  100
+   ITF =  1.5
+   PTF =  0
+   XCJC =  1
+   VJS =  0.75
+   MJS =  0
+   XTB =  1.5
+   EG =  1.11
+   XTI =  3
+   KF =  0
+   AF =  1
+   FC =  0.5
+   TNOM =  27
)

.MODEL KT830V PNP (
+   IS =  1.41e-13
+   BF =  25
+   BR =  1
+   RB =  0
+   RE =  0
+   RC =  0
+   CJS =  0
+   CJE =  2.1e-10
+   CJC =  1.8e-10
+   VJE =  0.75
+   VJC =  0.75
+   TF =  3.177e-08
+   TR =  1e-08
+   MJE =  0.333
+   MJC =  0.333
+   VA =  100
+   ISE =  0.0001
+   IKF =  1.5
+   NE =  1.5
+   NF =  1
+   NR =  1
+   VAR =  1e+30
+   IKR =  0
+   ISC =  0.0001
+   NC =  2
+   IRB =  1e+30
+   RBM =  0
+   XTF =  1.3
+   VTF =  100
+   ITF =  1.5
+   PTF =  0
+   XCJC =  1
+   VJS =  0.75
+   MJS =  0
+   XTB =  1.5
+   EG =  1.11
+   XTI =  3
+   KF =  0
+   AF =  1
+   FC =  0.5
+   TNOM =  27
)

.MODEL KT836A PNP (
+   IS =  2.82e-13
+   BF =  60
+   BR =  4
+   RB =  0
+   RE =  0
+   RC =  0.15
+   CJS =  0
+   CJE =  2.25e-09
+   CJC =  6.901e-10
+   VJE =  0.75
+   VJC =  0.75
+   TF =  1.713e-09
+   TR =  3e-08
+   MJE =  0.333
+   MJC =  0.333
+   VA =  40
+   ISE =  1e-06
+   IKF =  0.6
+   NE =  1.5
+   NF =  1
+   NR =  1
+   VAR =  1e+30
+   IKR =  0.8
+   ISC =  1e-06
+   NC =  2
+   IRB =  1e+30
+   RBM =  0
+   XTF =  1.2
+   VTF =  40
+   ITF =  0.8
+   PTF =  0
+   XCJC =  1
+   VJS =  0.75
+   MJS =  0
+   XTB =  1.5
+   EG =  1.11
+   XTI =  3
+   KF =  0
+   AF =  1
+   FC =  0.5
+   TNOM =  27
)

.MODEL KT836B PNP (
+   IS =  2.82e-13
+   BF =  70
+   BR =  4
+   RB =  0
+   RE =  0
+   RC =  0.1
+   CJS =  0
+   CJE =  2.25e-09
+   CJC =  6.901e-10
+   VJE =  0.75
+   VJC =  0.75
+   TF =  1.71e-09
+   TR =  3e-08
+   MJE =  0.333
+   MJC =  0.333
+   VA =  40
+   ISE =  1e-06
+   IKF =  0.6
+   NE =  1.5
+   NF =  1
+   NR =  1
+   VAR =  1e+30
+   IKR =  0.8
+   ISC =  1e-06
+   NC =  2
+   IRB =  1e+30
+   RBM =  0
+   XTF =  1.2
+   VTF =  40
+   ITF =  0.8
+   PTF =  0
+   XCJC =  1
+   VJS =  0.75
+   MJS =  0
+   XTB =  1.5
+   EG =  1.11
+   XTI =  3
+   KF =  0
+   AF =  1
+   FC =  0.5
+   TNOM =  27
)

.MODEL KT836V PNP (
+   IS =  2.82e-13
+   BF =  70
+   BR =  4
+   RB =  0
+   RE =  0
+   RC =  0.1
+   CJS =  0
+   CJE =  2.25e-09
+   CJC =  6.901e-10
+   VJE =  0.75
+   VJC =  0.75
+   TF =  1.71e-09
+   TR =  3e-08
+   MJE =  0.333
+   MJC =  0.333
+   VA =  40
+   ISE =  1e-06
+   IKF =  0.6
+   NE =  1.5
+   NF =  1
+   NR =  1
+   VAR =  1e+30
+   IKR =  0.8
+   ISC =  1e-06
+   NC =  2
+   IRB =  1e+30
+   RBM =  0
+   XTF =  1.2
+   VTF =  40
+   ITF =  0.8
+   PTF =  0
+   XCJC =  1
+   VJS =  0.75
+   MJS =  0
+   XTB =  1.5
+   EG =  1.11
+   XTI =  3
+   KF =  0
+   AF =  1
+   FC =  0.5
+   TNOM =  27
)

.MODEL Q2T202A PNP (
+   IS =  3.217e-12
+   BF =  50
+   BR =  1
+   RB =  0
+   RE =  0
+   RC =  0
+   CJS =  0
+   CJE =  1e-11
+   CJC =  2.5e-11
+   VJE =  0.75
+   VJC =  0.75
+   TF =  3.112e-08
+   TR =  1e-08
+   MJE =  0.333
+   MJC =  0.333
+   VA =  80
+   ISE =  1e-07
+   IKF =  0.02
+   NE =  1.5
+   NF =  1
+   NR =  1
+   VAR =  1e+30
+   IKR =  0
+   ISC =  1e-07
+   NC =  2
+   IRB =  1e+30
+   RBM =  0
+   XTF =  0
+   VTF =  0
+   ITF =  0
+   PTF =  0
+   XCJC =  1
+   VJS =  0.75
+   MJS =  0
+   XTB =  1.5
+   EG =  1.11
+   XTI =  3
+   KF =  0
+   AF =  1
+   FC =  0.5
+   TNOM =  27
)

.MODEL Q2T202B PNP (
+   IS =  3.217e-12
+   BF =  50
+   BR =  1
+   RB =  0
+   RE =  0
+   RC =  0
+   CJS =  0
+   CJE =  1e-11
+   CJC =  2.5e-11
+   VJE =  0.75
+   VJC =  0.75
+   TF =  3.112e-08
+   TR =  1e-08
+   MJE =  0.333
+   MJC =  0.333
+   VA =  100
+   ISE =  1e-07
+   IKF =  0.02
+   NE =  1.5
+   NF =  1
+   NR =  1
+   VAR =  1e+30
+   IKR =  0
+   ISC =  1e-07
+   NC =  2
+   IRB =  1e+30
+   RBM =  0
+   XTF =  0
+   VTF =  0
+   ITF =  0
+   PTF =  0
+   XCJC =  1
+   VJS =  0.75
+   MJS =  0
+   XTB =  1.5
+   EG =  1.11
+   XTI =  3
+   KF =  0
+   AF =  1
+   FC =  0.5
+   TNOM =  27
)

.MODEL Q2t202g PNP (
+   IS =  9.671e-16
+   BF =  77.08
+   BR =  1
+   RB =  0
+   RE =  0
+   RC =  0.4457
+   CJS =  0
+   CJE =  1.186e-11
+   CJC =  4.275e-11
+   VJE =  0.75
+   VJC =  0.75
+   TF =  3.067e-08
+   TR =  1.837e-06
+   MJE =  0.3333
+   MJC =  0.3333
+   VA =  18.21
+   ISE =  8.403e-15
+   IKF =  0.0282
+   NE =  1.586
+   NF =  1
+   NR =  1
+   VAR =  1e+30
+   IKR =  2.284
+   ISC =  4.436e-14
+   NC =  1.314
+   IRB =  1e+30
+   RBM =  0
+   XTF =  0
+   VTF =  10
+   ITF =  1
+   PTF =  0
+   XCJC =  1
+   VJS =  0.75
+   MJS =  0
+   XTB =  1.5
+   EG =  1.11
+   XTI =  3
+   KF =  0
+   AF =  1
+   FC =  0.5
+   TNOM =  27
)

.MODEL Q2T202V PNP (
+   IS =  3.217e-12
+   BF =  50
+   BR =  1
+   RB =  0
+   RE =  0
+   RC =  0
+   CJS =  0
+   CJE =  1e-11
+   CJC =  2.5e-11
+   VJE =  0.75
+   VJC =  0.75
+   TF =  3.112e-08
+   TR =  1e-08
+   MJE =  0.333
+   MJC =  0.333
+   VA =  250
+   ISE =  1e-07
+   IKF =  0.02
+   NE =  1.5
+   NF =  1
+   NR =  1
+   VAR =  1e+30
+   IKR =  0
+   ISC =  1e-07
+   NC =  2
+   IRB =  1e+30
+   RBM =  0
+   XTF =  0
+   VTF =  0
+   ITF =  0
+   PTF =  0
+   XCJC =  1
+   VJS =  0.75
+   MJS =  0
+   XTB =  1.5
+   EG =  1.11
+   XTI =  3
+   KF =  0
+   AF =  1
+   FC =  0.5
+   TNOM =  27
)

.MODEL Q2t203d PNP (
+   IS =  5.06e-18
+   BF =  60.87
+   BR =  1
+   RB =  0
+   RE =  0
+   RC =  0
+   CJS =  0
+   CJE =  1.186e-11
+   CJC =  1.97e-11
+   VJE =  0.75
+   VJC =  0.75
+   TF =  1.503e-08
+   TR =  1e-08
+   MJE =  0.333
+   MJC =  0.333
+   VA =  20.73
+   ISE =  6.25e-17
+   IKF =  0.01449
+   NE =  1.699
+   NF =  1
+   NR =  1
+   VAR =  1e+30
+   IKR =  0
+   ISC =  0
+   NC =  2
+   IRB =  1e+30
+   RBM =  0
+   XTF =  0
+   VTF =  10
+   ITF =  1
+   PTF =  0
+   XCJC =  1
+   VJS =  0.75
+   MJS =  0
+   XTB =  1.5
+   EG =  1.11
+   XTI =  3
+   KF =  0
+   AF =  1
+   FC =  0.5
+   TNOM =  27
)

.MODEL Q2T214A PNP (
+   IS =  6.734e-14
+   BF =  20
+   BR =  1
+   RB =  0
+   RE =  0
+   RC =  0
+   CJS =  0
+   CJE =  9.8e-12
+   CJC =  1.2e-11
+   VJE =  0.75
+   VJC =  0.75
+   TF =  1.588e-07
+   TR =  1e-08
+   MJE =  0.333
+   MJC =  0.333
+   VA =  80
+   ISE =  1e-06
+   IKF =  0.05
+   NE =  1.5
+   NF =  1
+   NR =  1
+   VAR =  1e+30
+   IKR =  0
+   ISC =  1e-06
+   NC =  2
+   IRB =  1e+30
+   RBM =  0
+   XTF =  0
+   VTF =  0
+   ITF =  0
+   PTF =  0
+   XCJC =  1
+   VJS =  0.75
+   MJS =  0
+   XTB =  1.5
+   EG =  1.11
+   XTI =  3
+   KF =  0
+   AF =  1
+   FC =  0.5
+   TNOM =  27
)

.MODEL Q2T214B PNP (
+   IS =  6.734e-14
+   BF =  60
+   BR =  1
+   RB =  0
+   RE =  0
+   RC =  0
+   CJS =  0
+   CJE =  9.8e-12
+   CJC =  1.2e-11
+   VJE =  0.75
+   VJC =  0.75
+   TF =  1.588e-07
+   TR =  1e-08
+   MJE =  0.333
+   MJC =  0.333
+   VA =  80
+   ISE =  1e-06
+   IKF =  0.05
+   NE =  1.5
+   NF =  1
+   NR =  1
+   VAR =  1e+30
+   IKR =  0
+   ISC =  1e-06
+   NC =  2
+   IRB =  1e+30
+   RBM =  0
+   XTF =  0
+   VTF =  0
+   ITF =  0
+   PTF =  0
+   XCJC =  1
+   VJS =  0.75
+   MJS =  0
+   XTB =  1.5
+   EG =  1.11
+   XTI =  3
+   KF =  0
+   AF =  1
+   FC =  0.5
+   TNOM =  27
)

.MODEL Q2T214G PNP (
+   IS =  6.734e-14
+   BF =  85
+   BR =  1
+   RB =  0
+   RE =  0
+   RC =  0
+   CJS =  0
+   CJE =  9.8e-12
+   CJC =  1.2e-11
+   VJE =  0.75
+   VJC =  0.75
+   TF =  1.588e-07
+   TR =  1e-08
+   MJE =  0.333
+   MJC =  0.333
+   VA =  80
+   ISE =  1e-06
+   IKF =  0.05
+   NE =  1.5
+   NF =  1
+   NR =  1
+   VAR =  1e+30
+   IKR =  0
+   ISC =  1e-06
+   NC =  2
+   IRB =  1e+30
+   RBM =  0
+   XTF =  0
+   VTF =  0
+   ITF =  0
+   PTF =  0
+   XCJC =  1
+   VJS =  0.75
+   MJS =  0
+   XTB =  1.5
+   EG =  1.11
+   XTI =  3
+   KF =  0
+   AF =  1
+   FC =  0.5
+   TNOM =  27
)

.MODEL Q2T214V PNP (
+   IS =  6.734e-14
+   BF =  90
+   BR =  1
+   RB =  0
+   RE =  0
+   RC =  0
+   CJS =  0
+   CJE =  9.8e-12
+   CJC =  1.2e-11
+   VJE =  0.75
+   VJC =  0.75
+   TF =  1.588e-07
+   TR =  1e-08
+   MJE =  0.333
+   MJC =  0.333
+   VA =  80
+   ISE =  1e-06
+   IKF =  0.05
+   NE =  1.5
+   NF =  1
+   NR =  1
+   VAR =  1e+30
+   IKR =  0
+   ISC =  1e-06
+   NC =  2
+   IRB =  1e+30
+   RBM =  0
+   XTF =  0
+   VTF =  0
+   ITF =  0
+   PTF =  0
+   XCJC =  1
+   VJS =  0.75
+   MJS =  0
+   XTB =  1.5
+   EG =  1.11
+   XTI =  3
+   KF =  0
+   AF =  1
+   FC =  0.5
+   TNOM =  27
)

.MODEL Q2T3107ˆ PNP (
+   IS =  9.913e-13
+   BF =  380
+   BR =  2.86
+   RB =  0
+   RE =  0
+   RC =  7
+   CJS =  0
+   CJE =  1.06e-11
+   CJC =  7.37e-12
+   VJE =  0.75
+   VJC =  0.7
+   TF =  1.13e-10
+   TR =  8e-11
+   MJE =  0.333
+   MJC =  0.333
+   VA =  35
+   ISE =  8.12e-12
+   IKF =  0.08
+   NE =  1.58
+   NF =  1
+   NR =  1
+   VAR =  1e+30
+   IKR =  0.08
+   ISC =  1e-10
+   NC =  2
+   IRB =  1e+30
+   RBM =  0
+   XTF =  1.2
+   VTF =  50
+   ITF =  0.008
+   PTF =  0
+   XCJC =  1
+   VJS =  0.75
+   MJS =  0
+   XTB =  1.5
+   EG =  1.11
+   XTI =  3
+   KF =  0
+   AF =  1
+   FC =  0.5
+   TNOM =  27
)

.MODEL Q2T3107A PNP (
+   IS =  9.913e-13
+   BF =  132.3
+   BR =  2.86
+   RB =  0
+   RE =  0
+   RC =  7
+   CJS =  0
+   CJE =  1.06e-11
+   CJC =  7.37e-12
+   VJE =  0.75
+   VJC =  0.7
+   TF =  1.13e-10
+   TR =  8e-11
+   MJE =  0.333
+   MJC =  0.333
+   VA =  35
+   ISE =  8.12e-12
+   IKF =  0.08
+   NE =  1.58
+   NF =  1
+   NR =  1
+   VAR =  1e+30
+   IKR =  0.08
+   ISC =  1e-10
+   NC =  2
+   IRB =  1e+30
+   RBM =  0
+   XTF =  1.2
+   VTF =  50
+   ITF =  0.008
+   PTF =  0
+   XCJC =  1
+   VJS =  0.75
+   MJS =  0
+   XTB =  1.5
+   EG =  1.11
+   XTI =  3
+   KF =  0
+   AF =  1
+   FC =  0.5
+   TNOM =  27
)

.MODEL Q2T3107E PNP (
+   IS =  9.913e-13
+   BF =  210
+   BR =  2.86
+   RB =  0
+   RE =  0
+   RC =  7
+   CJS =  0
+   CJE =  1.06e-11
+   CJC =  7.37e-12
+   VJE =  0.75
+   VJC =  0.7
+   TF =  1.13e-10
+   TR =  8e-11
+   MJE =  0.3333
+   MJC =  0.333
+   VA =  35
+   ISE =  8.12e-12
+   IKF =  0.08
+   NE =  1.58
+   NF =  1
+   NR =  1
+   VAR =  1e+30
+   IKR =  0.08
+   ISC =  1e-10
+   NC =  2
+   IRB =  1e+30
+   RBM =  0
+   XTF =  1.2
+   VTF =  50
+   ITF =  0.008
+   PTF =  0
+   XCJC =  1
+   VJS =  0.75
+   MJS =  0
+   XTB =  1.5
+   EG =  1.11
+   XTI =  3
+   KF =  0
+   AF =  1
+   FC =  0.5
+   TNOM =  27
)

.MODEL Q2T3107K PNP (
+   IS =  9.913e-13
+   BF =  500
+   BR =  2.86
+   RB =  0
+   RE =  0
+   RC =  7
+   CJS =  0
+   CJE =  1.06e-11
+   CJC =  7.37e-12
+   VJE =  0.75
+   VJC =  0.7
+   TF =  1.13e-10
+   TR =  8e-11
+   MJE =  0.333
+   MJC =  0.333
+   VA =  35
+   ISE =  8.12e-12
+   IKF =  0.08
+   NE =  1.58
+   NF =  1
+   NR =  1
+   VAR =  1e+30
+   IKR =  0.08
+   ISC =  1e-10
+   NC =  2
+   IRB =  1e+30
+   RBM =  0
+   XTF =  1.2
+   VTF =  50
+   ITF =  0.008
+   PTF =  0
+   XCJC =  1
+   VJS =  0.75
+   MJS =  0
+   XTB =  1.5
+   EG =  1.11
+   XTI =  3
+   KF =  0
+   AF =  1
+   FC =  0.5
+   TNOM =  27
)

.MODEL q2t3108a PNP (
+   IS =  8.63e-16
+   BF =  112.4
+   BR =  2.984
+   RB =  52
+   RE =  0
+   RC =  4.24
+   CJS =  0
+   CJE =  3.76e-12
+   CJC =  4.53e-12
+   VJE =  0.69
+   VJC =  0.65
+   TF =  2.923e-10
+   TR =  4.355e-08
+   MJE =  0.33
+   MJC =  0.33
+   VA =  85
+   ISE =  3.765e-08
+   IKF =  0.028
+   NE =  12.5
+   NF =  1
+   NR =  1
+   VAR =  26
+   IKR =  0.056
+   ISC =  1.25e-12
+   NC =  2
+   IRB =  1e+30
+   RBM =  0
+   XTF =  2
+   VTF =  55
+   ITF =  0.058
+   PTF =  0
+   XCJC =  1
+   VJS =  0.75
+   MJS =  0
+   XTB =  1.5
+   EG =  1.11
+   XTI =  3
+   KF =  0
+   AF =  1
+   FC =  0.5
+   TNOM =  27
)

.MODEL Q2T3108B PNP (
+   IS =  9.744e-15
+   BF =  80
+   BR =  1
+   RB =  0
+   RE =  0
+   RC =  0
+   CJS =  0
+   CJE =  6e-12
+   CJC =  5e-12
+   VJE =  0.75
+   VJC =  0.75
+   TF =  4.995e-10
+   TR =  1e-08
+   MJE =  0.333
+   MJC =  0.333
+   VA =  100
+   ISE =  1e-07
+   IKF =  0.15
+   NE =  1.5
+   NF =  1
+   NR =  1
+   VAR =  1e+30
+   IKR =  0
+   ISC =  2e-07
+   NC =  2
+   IRB =  1e+30
+   RBM =  0
+   XTF =  0
+   VTF =  0
+   ITF =  0
+   PTF =  0
+   XCJC =  1
+   VJS =  0.75
+   MJS =  0
+   XTB =  1.5
+   EG =  1.11
+   XTI =  3
+   KF =  0
+   AF =  1
+   FC =  0.5
+   TNOM =  27
)

.MODEL Q2T3108V PNP (
+   IS =  9.744e-15
+   BF =  200
+   BR =  1
+   RB =  0
+   RE =  0
+   RC =  0
+   CJS =  0
+   CJE =  6e-12
+   CJC =  5e-12
+   VJE =  0.75
+   VJC =  0.75
+   TF =  4.995e-10
+   TR =  1e-08
+   MJE =  0.333
+   MJC =  0.333
+   VA =  90
+   ISE =  1e-07
+   IKF =  0.15
+   NE =  1.5
+   NF =  1
+   NR =  1
+   VAR =  1e+30
+   IKR =  0
+   ISC =  2e-07
+   NC =  2
+   IRB =  1e+30
+   RBM =  0
+   XTF =  0
+   VTF =  0
+   ITF =  0
+   PTF =  0
+   XCJC =  1
+   VJS =  0.75
+   MJS =  0
+   XTB =  1.5
+   EG =  1.11
+   XTI =  3
+   KF =  0
+   AF =  1
+   FC =  0.5
+   TNOM =  27
)

.MODEL q2t313b PNP (
+   IS =  3.306e-15
+   BF =  153.6
+   BR =  3.37
+   RB =  23.2
+   RE =  0
+   RC =  1.345
+   CJS =  0
+   CJE =  3.064e-11
+   CJC =  1.871e-11
+   VJE =  0.69
+   VJC =  0.69
+   TF =  2.679e-10
+   TR =  5.887e-08
+   MJE =  0.33
+   MJC =  0.31
+   VA =  86.3
+   ISE =  3.306e-15
+   IKF =  2.47
+   NE =  1.36
+   NF =  1
+   NR =  1
+   VAR =  40
+   IKR =  0.85
+   ISC =  3.32e-14
+   NC =  2
+   IRB =  1e+30
+   RBM =  0
+   XTF =  2
+   VTF =  65
+   ITF =  0.785
+   PTF =  0
+   XCJC =  1
+   VJS =  0.75
+   MJS =  0
+   XTB =  1.5
+   EG =  1.11
+   XTI =  3
+   KF =  0
+   AF =  1
+   FC =  0.5
+   TNOM =  27
)

.MODEL Q2t326b PNP (
+   IS =  1.664e-14
+   BF =  99.06
+   BR =  1.75
+   RB =  52.4
+   RE =  0
+   RC =  1.85
+   CJS =  0
+   CJE =  3.37e-12
+   CJC =  4.089e-12
+   VJE =  0.75
+   VJC =  0.69
+   TF =  1.602e-10
+   TR =  4.004e-08
+   MJE =  0.35
+   MJC =  0.33
+   VA =  115
+   ISE =  5.412e-11
+   IKF =  0.675
+   NE =  2.527
+   NF =  1
+   NR =  1
+   VAR =  63
+   IKR =  0.52
+   ISC =  1.25e-14
+   NC =  2
+   IRB =  1e+30
+   RBM =  0
+   XTF =  2
+   VTF =  10
+   ITF =  0.1
+   PTF =  0
+   XCJC =  1
+   VJS =  0.75
+   MJS =  0
+   XTB =  1.5
+   EG =  1.11
+   XTI =  3
+   KF =  0
+   AF =  1
+   FC =  0.5
+   TNOM =  27
)

.MODEL Q2t360a1 PNP (
+   IS =  7.67e-17
+   BF =  61.48
+   BR =  146
+   RB =  270
+   RE =  0
+   RC =  0.0008061
+   CJS =  0
+   CJE =  7e-12
+   CJC =  9.859e-12
+   VJE =  0.75
+   VJC =  0.75
+   TF =  4.428e-10
+   TR =  1e-08
+   MJE =  0.333
+   MJC =  0.333
+   VA =  9.84
+   ISE =  6.37e-16
+   IKF =  0.2041
+   NE =  2.213
+   NF =  1
+   NR =  1
+   VAR =  1e+30
+   IKR =  0.04933
+   ISC =  1.497e-16
+   NC =  1.62
+   IRB =  1e+30
+   RBM =  0
+   XTF =  0
+   VTF =  10
+   ITF =  1
+   PTF =  0
+   XCJC =  1
+   VJS =  0.75
+   MJS =  0
+   XTB =  1.5
+   EG =  1.11
+   XTI =  3
+   KF =  0
+   AF =  1
+   FC =  0.5
+   TNOM =  27
)

.MODEL Q2t360b1 PNP (
+   IS =  7.67e-17
+   BF =  103.4
+   BR =  146
+   RB =  270
+   RE =  0
+   RC =  0.0008061
+   CJS =  0
+   CJE =  7e-12
+   CJC =  9.859e-12
+   VJE =  0.75
+   VJC =  0.75
+   TF =  3.104e-10
+   TR =  1e-08
+   MJE =  0.333
+   MJC =  0.3333
+   VA =  9.839
+   ISE =  8.18e-16
+   IKF =  0.2048
+   NE =  2.115
+   NF =  1
+   NR =  1
+   VAR =  1e+30
+   IKR =  0.04933
+   ISC =  1.497e-16
+   NC =  1.62
+   IRB =  1e+30
+   RBM =  0
+   XTF =  0
+   VTF =  10
+   ITF =  1
+   PTF =  0
+   XCJC =  1
+   VJS =  0.75
+   MJS =  0
+   XTB =  1.5
+   EG =  1.11
+   XTI =  3
+   KF =  0
+   AF =  1
+   FC =  0.5
+   TNOM =  27
)

.MODEL Q2t360v1 PNP (
+   IS =  7.669e-17
+   BF =  206.3
+   BR =  146
+   RB =  270
+   RE =  0
+   RC =  0.0008061
+   CJS =  0
+   CJE =  7e-12
+   CJC =  9.859e-12
+   VJE =  0.75
+   VJC =  0.75
+   TF =  2.968e-10
+   TR =  1e-08
+   MJE =  0.3333
+   MJC =  0.3333
+   VA =  9.84
+   ISE =  8.18e-16
+   IKF =  0.2052
+   NE =  2.112
+   NF =  1
+   NR =  1
+   VAR =  1e+30
+   IKR =  0.04933
+   ISC =  1.497e-16
+   NC =  1.62
+   IRB =  1e+30
+   RBM =  0
+   XTF =  0
+   VTF =  10
+   ITF =  1
+   PTF =  0
+   XCJC =  1
+   VJS =  0.75
+   MJS =  0
+   XTB =  1.5
+   EG =  1.11
+   XTI =  3
+   KF =  0
+   AF =  1
+   FC =  0.5
+   TNOM =  27
)

.MODEL q2t363b PNP (
+   IS =  1.18e-14
+   BF =  156.2
+   BR =  1.18
+   RB =  67.5
+   RE =  0
+   RC =  1.6
+   CJS =  0
+   CJE =  1.112e-12
+   CJC =  2.958e-12
+   VJE =  0.71
+   VJC =  0.69
+   TF =  4.132e-11
+   TR =  6.149e-09
+   MJE =  0.35
+   MJC =  0.33
+   VA =  95.7
+   ISE =  1.83e-12
+   IKF =  0.195
+   NE =  1.97