
.MODEL 2N2712 NPN (
+   IS =  6.101e-14
+   BF =  204
+   BR =  0.2181
+   RB =  10
+   RE =  0
+   RC =  2.14
+   CJS =  0
+   CJE =  5.928e-12
+   CJC =  6.072e-12
+   VJE =  0.75
+   VJC =  0.75
+   TF =  4.14e-10
+   TR =  1.567e-06
+   MJE =  0.3333
+   MJC =  0.3333
+   VA =  57.37
+   ISE =  7.268e-14
+   IKF =  0.09779
+   NE =  1.305
+   NF =  1
+   NR =  1
+   VAR =  1e+30
+   IKR =  0
+   ISC =  0
+   NC =  2
+   IRB =  1e+30
+   RBM =  0
+   XTF =  8
+   VTF =  5
+   ITF =  0.2
+   PTF =  0
+   XCJC =  1
+   VJS =  0.75
+   MJS =  0
+   XTB =  1.5
+   EG =  1.11
+   XTI =  3
+   KF =  0
+   AF =  1
+   FC =  0.5
+   TNOM =  27
)

.MODEL 2N2714 NPN (
+   IS =  6.101e-14
+   BF =  204
+   BR =  0.2181
+   RB =  10
+   RE =  0
+   RC =  2.14
+   CJS =  0
+   CJE =  5.928e-12
+   CJC =  6.072e-12
+   VJE =  0.75
+   VJC =  0.75
+   TF =  3.163e-10
+   TR =  1.567e-06
+   MJE =  0.3333
+   MJC =  0.3333
+   VA =  57.37
+   ISE =  7.268e-14
+   IKF =  0.09779
+   NE =  1.305
+   NF =  1
+   NR =  1
+   VAR =  1e+30
+   IKR =  0
+   ISC =  0
+   NC =  2
+   IRB =  1e+30
+   RBM =  0
+   XTF =  8
+   VTF =  5
+   ITF =  0.2
+   PTF =  0
+   XCJC =  1
+   VJS =  0.75
+   MJS =  0
+   XTB =  1.5
+   EG =  1.11
+   XTI =  3
+   KF =  0
+   AF =  1
+   FC =  0.5
+   TNOM =  27
)

.MODEL 2N2923 NPN (
+   IS =  1.203e-14
+   BF =  176.2
+   BR =  4.379
+   RB =  10
+   RE =  0
+   RC =  1
+   CJS =  0
+   CJE =  8.307e-12
+   CJC =  5.777e-12
+   VJE =  0.75
+   VJC =  0.75
+   TF =  3.854e-10
+   TR =  7.671e-10
+   MJE =  0.384
+   MJC =  0.3199
+   VA =  37.37
+   ISE =  7.171e-12
+   IKF =  0.1072
+   NE =  1.971
+   NF =  1
+   NR =  1
+   VAR =  1e+30
+   IKR =  0
+   ISC =  0
+   NC =  2
+   IRB =  1e+30
+   RBM =  0
+   XTF =  8
+   VTF =  3
+   ITF =  0.17
+   PTF =  0
+   XCJC =  1
+   VJS =  0.75
+   MJS =  0
+   XTB =  1.5
+   EG =  1.11
+   XTI =  3
+   KF =  0
+   AF =  1
+   FC =  0.5
+   TNOM =  27
)

.MODEL 2N2924 NPN (
+   IS =  1.203e-14
+   BF =  295.7
+   BR =  4.379
+   RB =  10
+   RE =  0
+   RC =  1
+   CJS =  0
+   CJE =  8.307e-12
+   CJC =  5.777e-12
+   VJE =  0.75
+   VJC =  0.75
+   TF =  3.854e-10
+   TR =  7.216e-10
+   MJE =  0.384
+   MJC =  0.3199
+   VA =  37.37
+   ISE =  4.272e-12
+   IKF =  0.1072
+   NE =  1.971
+   NF =  1
+   NR =  1
+   VAR =  1e+30
+   IKR =  0
+   ISC =  0
+   NC =  2
+   IRB =  1e+30
+   RBM =  0
+   XTF =  8
+   VTF =  3
+   ITF =  0.17
+   PTF =  0
+   XCJC =  1
+   VJS =  0.75
+   MJS =  0
+   XTB =  1.5
+   EG =  1.11
+   XTI =  3
+   KF =  0
+   AF =  1
+   FC =  0.5
+   TNOM =  27
)

.MODEL 2N2925 NPN (
+   IS =  1.203e-14
+   BF =  462.4
+   BR =  4.379
+   RB =  10
+   RE =  0
+   RC =  1
+   CJS =  0
+   CJE =  8.307e-12
+   CJC =  5.777e-12
+   VJE =  0.75
+   VJC =  0.75
+   TF =  3.854e-10
+   TR =  6.984e-10
+   MJE =  0.384
+   MJC =  0.3199
+   VA =  37.37
+   ISE =  2.732e-12
+   IKF =  0.1072
+   NE =  1.971
+   NF =  1
+   NR =  1
+   VAR =  1e+30
+   IKR =  0
+   ISC =  0
+   NC =  2
+   IRB =  1e+30
+   RBM =  0
+   XTF =  8
+   VTF =  3
+   ITF =  0.17
+   PTF =  0
+   XCJC =  1
+   VJS =  0.75
+   MJS =  0
+   XTB =  1.5
+   EG =  1.11
+   XTI =  3
+   KF =  0
+   AF =  1
+   FC =  0.5
+   TNOM =  27
)

.MODEL 2N3390 NPN (
+   IS =  1.203e-14
+   BF =  685.8
+   BR =  4.379
+   RB =  10
+   RE =  0
+   RC =  1
+   CJS =  0
+   CJE =  8.307e-12
+   CJC =  5.777e-12
+   VJE =  0.75
+   VJC =  0.75
+   TF =  3.854e-10
+   TR =  6.853e-10
+   MJE =  0.384
+   MJC =  0.3199
+   VA =  37.37
+   ISE =  1.842e-12
+   IKF =  0.1072
+   NE =  1.971
+   NF =  1
+   NR =  1
+   VAR =  1e+30
+   IKR =  0
+   ISC =  0
+   NC =  2
+   IRB =  1e+30
+   RBM =  0
+   XTF =  8
+   VTF =  3
+   ITF =  0.17
+   PTF =  0
+   XCJC =  1
+   VJS =  0.75
+   MJS =  0
+   XTB =  1.5
+   EG =  1.11
+   XTI =  3
+   KF =  0
+   AF =  1
+   FC =  0.5
+   TNOM =  27
)

.MODEL 2N3391 NPN (
+   IS =  1.203e-14
+   BF =  427.8
+   BR =  4.379
+   RB =  10
+   RE =  0
+   RC =  1
+   CJS =  0
+   CJE =  8.307e-12
+   CJC =  5.777e-12
+   VJE =  0.75
+   VJC =  0.75
+   TF =  3.854e-10
+   TR =  7.017e-10
+   MJE =  0.384
+   MJC =  0.3199
+   VA =  37.37
+   ISE =  2.953e-12
+   IKF =  0.1072
+   NE =  1.971
+   NF =  1
+   NR =  1
+   VAR =  1e+30
+   IKR =  0
+   ISC =  0
+   NC =  2
+   IRB =  1e+30
+   RBM =  0
+   XTF =  8
+   VTF =  3
+   ITF =  0.17
+   PTF =  0
+   XCJC =  1
+   VJS =  0.75
+   MJS =  0
+   XTB =  1.5
+   EG =  1.11
+   XTI =  3
+   KF =  0
+   AF =  1
+   FC =  0.5
+   TNOM =  27
)

.MODEL 2N3391A NPN (
+   IS =  1.203e-14
+   BF =  427.8
+   BR =  4.379
+   RB =  10
+   RE =  0
+   RC =  1
+   CJS =  0
+   CJE =  8.307e-12
+   CJC =  5.777e-12
+   VJE =  0.75
+   VJC =  0.75
+   TF =  3.854e-10
+   TR =  7.017e-10
+   MJE =  0.384
+   MJC =  0.3199
+   VA =  37.37
+   ISE =  2.953e-12
+   IKF =  0.1072
+   NE =  1.971
+   NF =  1
+   NR =  1
+   VAR =  1e+30
+   IKR =  0
+   ISC =  0
+   NC =  2
+   IRB =  1e+30
+   RBM =  0
+   XTF =  8
+   VTF =  3
+   ITF =  0.17
+   PTF =  0
+   XCJC =  1
+   VJS =  0.75
+   MJS =  0
+   XTB =  1.5
+   EG =  1.11
+   XTI =  3
+   KF =  0
+   AF =  1
+   FC =  0.5
+   TNOM =  27
)

.MODEL 2N3392 NPN (
+   IS =  1.203e-14
+   BF =  254.8
+   BR =  4.379
+   RB =  10
+   RE =  0
+   RC =  1
+   CJS =  0
+   CJE =  8.307e-12
+   CJC =  5.777e-12
+   VJE =  0.75
+   VJC =  0.75
+   TF =  3.854e-10
+   TR =  7.321e-10
+   MJE =  0.384
+   MJC =  0.3199
+   VA =  37.37
+   ISE =  4.958e-12
+   IKF =  0.1072
+   NE =  1.971
+   NF =  1
+   NR =  1
+   VAR =  1e+30
+   IKR =  0
+   ISC =  0
+   NC =  2
+   IRB =  1e+30
+   RBM =  0
+   XTF =  8
+   VTF =  3
+   ITF =  0.17
+   PTF =  0
+   XCJC =  1
+   VJS =  0.75
+   MJS =  0
+   XTB =  1.5
+   EG =  1.11
+   XTI =  3
+   KF =  0
+   AF =  1
+   FC =  0.5
+   TNOM =  27
)

.MODEL 2N3393 NPN (
+   IS =  1.203e-14
+   BF =  154.1
+   BR =  4.379
+   RB =  10
+   RE =  0
+   RC =  1
+   CJS =  0
+   CJE =  8.307e-12
+   CJC =  5.777e-12
+   VJE =  0.75
+   VJC =  0.75
+   TF =  3.854e-10
+   TR =  7.838e-10
+   MJE =  0.384
+   MJC =  0.3199
+   VA =  37.37
+   ISE =  8.195e-12
+   IKF =  0.1072
+   NE =  1.971
+   NF =  1
+   NR =  1
+   VAR =  1e+30
+   IKR =  0
+   ISC =  0
+   NC =  2
+   IRB =  1e+30
+   RBM =  0
+   XTF =  8
+   VTF =  3
+   ITF =  0.17
+   PTF =  0
+   XCJC =  1
+   VJS =  0.75
+   MJS =  0
+   XTB =  1.5
+   EG =  1.11
+   XTI =  3
+   KF =  0
+   AF =  1
+   FC =  0.5
+   TNOM =  27
)

.MODEL 2N3394 NPN (
+   IS =  6.101e-14
+   BF =  121.3
+   BR =  0.2359
+   RB =  10
+   RE =  0
+   RC =  2.14
+   CJS =  0
+   CJE =  5.928e-12
+   CJC =  6.072e-12
+   VJE =  0.75
+   VJC =  0.75
+   TF =  3.163e-10
+   TR =  1.633e-06
+   MJE =  0.3333
+   MJC =  0.3333
+   VA =  57.37
+   ISE =  1.222e-13
+   IKF =  0.09779
+   NE =  1.305
+   NF =  1
+   NR =  1
+   VAR =  1e+30
+   IKR =  0
+   ISC =  0
+   NC =  2
+   IRB =  1e+30
+   RBM =  0
+   XTF =  8
+   VTF =  5
+   ITF =  0.2
+   PTF =  0
+   XCJC =  1
+   VJS =  0.75
+   MJS =  0
+   XTB =  1.5
+   EG =  1.11
+   XTI =  3
+   KF =  0
+   AF =  1
+   FC =  0.5
+   TNOM =  27
)

.MODEL 2N3414 NPN (
+   IS =  1.434e-14
+   BF =  184.4
+   BR =  6.386
+   RB =  10
+   RE =  0
+   RC =  1
+   CJS =  0
+   CJE =  2.201e-11
+   CJC =  9.393e-12
+   VJE =  0.75
+   VJC =  0.75
+   TF =  4.097e-10
+   TR =  4.809e-08
+   MJE =  0.377
+   MJC =  0.3416
+   VA =  74.03
+   ISE =  1.434e-14
+   IKF =  0.2714
+   NE =  1.277
+   NF =  1
+   NR =  1
+   VAR =  1e+30
+   IKR =  0
+   ISC =  0
+   NC =  2
+   IRB =  1e+30
+   RBM =  0
+   XTF =  3
+   VTF =  1.7
+   ITF =  0.6
+   PTF =  0
+   XCJC =  1
+   VJS =  0.75
+   MJS =  0
+   XTB =  1.5
+   EG =  1.11
+   XTI =  3
+   KF =  0
+   AF =  1
+   FC =  0.5
+   TNOM =  27
)

.MODEL 2N3415 NPN (
+   IS =  1.203e-14
+   BF =  377.5
+   BR =  4.379
+   RB =  10
+   RE =  0
+   RC =  1
+   CJS =  0
+   CJE =  8.307e-12
+   CJC =  5.777e-12
+   VJE =  0.75
+   VJC =  0.75
+   TF =  3.854e-10
+   TR =  7.076e-10
+   MJE =  0.384
+   MJC =  0.3199
+   VA =  37.37
+   ISE =  3.346e-12
+   IKF =  0.1072
+   NE =  1.971
+   NF =  1
+   NR =  1
+   VAR =  1e+30
+   IKR =  0
+   ISC =  0
+   NC =  2
+   IRB =  1e+30
+   RBM =  0
+   XTF =  8
+   VTF =  3
+   ITF =  0.17
+   PTF =  0
+   XCJC =  1
+   VJS =  0.75
+   MJS =  0
+   XTB =  1.5
+   EG =  1.11
+   XTI =  3
+   KF =  0
+   AF =  1
+   FC =  0.5
+   TNOM =  27
)

.MODEL 2N3416 NPN (
+   IS =  1.203e-14
+   BF =  157.3
+   BR =  4.379
+   RB =  10
+   RE =  0
+   RC =  1
+   CJS =  0
+   CJE =  8.307e-12
+   CJC =  5.777e-12
+   VJE =  0.75
+   VJC =  0.75
+   TF =  3.854e-10
+   TR =  7.811e-10
+   MJE =  0.384
+   MJC =  0.3199
+   VA =  37.37
+   ISE =  8.031e-12
+   IKF =  0.1072
+   NE =  1.971
+   NF =  1
+   NR =  1
+   VAR =  1e+30
+   IKR =  0
+   ISC =  0
+   NC =  2
+   IRB =  1e+30
+   RBM =  0
+   XTF =  8
+   VTF =  3
+   ITF =  0.17
+   PTF =  0
+   XCJC =  1
+   VJS =  0.75
+   MJS =  0
+   XTB =  1.5
+   EG =  1.11
+   XTI =  3
+   KF =  0
+   AF =  1
+   FC =  0.5
+   TNOM =  27
)

.MODEL 2N3417 NPN (
+   IS =  1.203e-14
+   BF =  377.5
+   BR =  4.379
+   RB =  10
+   RE =  0
+   RC =  1
+   CJS =  0
+   CJE =  8.307e-12
+   CJC =  5.777e-12
+   VJE =  0.75
+   VJC =  0.75
+   TF =  3.854e-10
+   TR =  7.076e-10
+   MJE =  0.384
+   MJC =  0.3199
+   VA =  37.37
+   ISE =  3.346e-12
+   IKF =  0.1072
+   NE =  1.971
+   NF =  1
+   NR =  1
+   VAR =  1e+30
+   IKR =  0
+   ISC =  0
+   NC =  2
+   IRB =  1e+30
+   RBM =  0
+   XTF =  8
+   VTF =  3
+   ITF =  0.17
+   PTF =  0
+   XCJC =  1
+   VJS =  0.75
+   MJS =  0
+   XTB =  1.5
+   EG =  1.11
+   XTI =  3
+   KF =  0
+   AF =  1
+   FC =  0.5
+   TNOM =  27
)

.MODEL 2N3707 NPN (
+   IS =  5.911e-15
+   BF =  535.1
+   BR =  1.321
+   RB =  10
+   RE =  0
+   RC =  1.61
+   CJS =  0
+   CJE =  4.973e-12
+   CJC =  4.017e-12
+   VJE =  0.75
+   VJC =  0.75
+   TF =  8.196e-10
+   TR =  4.708e-09
+   MJE =  0.4146
+   MJC =  0.3174
+   VA =  62.37
+   ISE =  5.911e-15
+   IKF =  0.01331
+   NE =  1.311
+   NF =  1
+   NR =  1
+   VAR =  1e+30
+   IKR =  0
+   ISC =  0
+   NC =  2
+   IRB =  1e+30
+   RBM =  0
+   XTF =  7
+   VTF =  4
+   ITF =  0.35
+   PTF =  0
+   XCJC =  1
+   VJS =  0.75
+   MJS =  0
+   XTB =  1.5
+   EG =  1.11
+   XTI =  3
+   KF =  0
+   AF =  1
+   FC =  0.5
+   TNOM =  27
)

.MODEL 2N3711 NPN (
+   IS =  5.911e-15
+   BF =  680.9
+   BR =  1.299
+   RB =  10
+   RE =  0
+   RC =  1.61
+   CJS =  0
+   CJE =  4.973e-12
+   CJC =  4.017e-12
+   VJE =  0.75
+   VJC =  0.75
+   TF =  8.204e-10
+   TR =  4.689e-09
+   MJE =  0.4146
+   MJC =  0.3174
+   VA =  62.37
+   ISE =  5.911e-15
+   IKF =  0.01388
+   NE =  1.339
+   NF =  1
+   NR =  1
+   VAR =  1e+30
+   IKR =  0
+   ISC =  0
+   NC =  2
+   IRB =  1e+30
+   RBM =  0
+   XTF =  7
+   VTF =  4
+   ITF =  0.35
+   PTF =  0
+   XCJC =  1
+   VJS =  0.75
+   MJS =  0
+   XTB =  1.5
+   EG =  1.11
+   XTI =  3
+   KF =  0
+   AF =  1
+   FC =  0.5
+   TNOM =  27
)

.MODEL 2N3858A NPN (
+   IS =  5.911e-15
+   BF =  330.6
+   BR =  1.465
+   RB =  10
+   RE =  0
+   RC =  1.61
+   CJS =  0
+   CJE =  4.973e-12
+   CJC =  4.017e-12
+   VJE =  0.75
+   VJC =  0.75
+   TF =  8.164e-10
+   TR =  4.863e-09
+   MJE =  0.4146
+   MJC =  0.3174
+   VA =  62.37
+   ISE =  5.911e-15
+   IKF =  0.01146
+   NE =  1.23
+   NF =  1
+   NR =  1
+   VAR =  1e+30
+   IKR =  0
+   ISC =  0
+   NC =  2
+   IRB =  1e+30
+   RBM =  0
+   XTF =  7
+   VTF =  4
+   ITF =  0.35
+   PTF =  0
+   XCJC =  1
+   VJS =  0.75
+   MJS =  0
+   XTB =  1.5
+   EG =  1.11
+   XTI =  3
+   KF =  0
+   AF =  1
+   FC =  0.5
+   TNOM =  27
)

.MODEL 2N3859 NPN (
+   IS =  6.101e-14
+   BF =  220.6
+   BR =  0.2163
+   RB =  10
+   RE =  0
+   RC =  2.14
+   CJS =  0
+   CJE =  5.928e-12
+   CJC =  6.072e-12
+   VJE =  0.75
+   VJC =  0.75
+   TF =  5.24e-10
+   TR =  1.56e-06
+   MJE =  0.3333
+   MJC =  0.3333
+   VA =  57.37
+   ISE =  6.723e-14
+   IKF =  0.09779
+   NE =  1.305
+   NF =  1
+   NR =  1
+   VAR =  1e+30
+   IKR =  0
+   ISC =  0
+   NC =  2
+   IRB =  1e+30
+   RBM =  0
+   XTF =  8
+   VTF =  5
+   ITF =  0.2
+   PTF =  0
+   XCJC =  1
+   VJS =  0.75
+   MJS =  0
+   XTB =  1.5
+   EG =  1.11
+   XTI =  3
+   KF =  0
+   AF =  1
+   FC =  0.5
+   TNOM =  27
)

.MODEL 2N3859A NPN (
+   IS =  5.911e-15
+   BF =  393.6
+   BR =  1.372
+   RB =  10
+   RE =  0
+   RC =  1.61
+   CJS =  0
+   CJE =  4.973e-12
+   CJC =  4.017e-12
+   VJE =  0.75
+   VJC =  0.75
+   TF =  8.182e-10
+   TR =  4.761e-09
+   MJE =  0.4146
+   MJC =  0.3174
+   VA =  62.37
+   ISE =  5.911e-15
+   IKF =  0.01243
+   NE =  1.271
+   NF =  1
+   NR =  1
+   VAR =  1e+30
+   IKR =  0
+   ISC =  0
+   NC =  2
+   IRB =  1e+30
+   RBM =  0
+   XTF =  7
+   VTF =  4
+   ITF =  0.35
+   PTF =  0
+   XCJC =  1
+   VJS =  0.75
+   MJS =  0
+   XTB =  1.5
+   EG =  1.11
+   XTI =  3
+   KF =  0
+   AF =  1
+   FC =  0.5
+   TNOM =  27
)

.MODEL 2N3860 NPN (
+   IS =  6.101e-14
+   BF =  314
+   BR =  0.2092
+   RB =  10
+   RE =  0
+   RC =  2.14
+   CJS =  0
+   CJE =  5.928e-12
+   CJC =  6.072e-12
+   VJE =  0.75
+   VJC =  0.75
+   TF =  5.243e-10
+   TR =  1.53e-06
+   MJE =  0.3333
+   MJC =  0.3333
+   VA =  57.37
+   ISE =  6.101e-14
+   IKF =  0.1012
+   NE =  1.331
+   NF =  1
+   NR =  1
+   VAR =  1e+30
+   IKR =  0
+   ISC =  0
+   NC =  2
+   IRB =  1e+30
+   RBM =  0
+   XTF =  8
+   VTF =  5
+   ITF =  0.2
+   PTF =  0
+   XCJC =  1
+   VJS =  0.75
+   MJS =  0
+   XTB =  1.5
+   EG =  1.11
+   XTI =  3
+   KF =  0
+   AF =  1
+   FC =  0.5
+   TNOM =  27
)

.MODEL 2N3903 NPN (
+   IS =  6.734e-15
+   BF =  335.2
+   BR =  0.8073
+   RB =  10
+   RE =  0
+   RC =  1
+   CJS =  0
+   CJE =  4.493e-12
+   CJC =  3.638e-12
+   VJE =  0.75
+   VJC =  0.75
+   TF =  3.008e-10
+   TR =  2.439e-07
+   MJE =  0.2593
+   MJC =  0.3085
+   VA =  74.03
+   ISE =  6.734e-15
+   IKF =  0.06026
+   NE =  1.208
+   NF =  1
+   NR =  1
+   VAR =  1e+30
+   IKR =  0
+   ISC =  0
+   NC =  2
+   IRB =  1e+30
+   RBM =  0
+   XTF =  2
+   VTF =  4
+   ITF =  0.4
+   PTF =  0
+   XCJC =  1
+   VJS =  0.75
+   MJS =  0
+   XTB =  1.5
+   EG =  1.11
+   XTI =  3
+   KF =  0
+   AF =  1
+   FC =  0.5
+   TNOM =  27
)

.MODEL 2N3904 NPN (
+   IS =  6.734e-15
+   BF =  416.4
+   BR =  0.7371
+   RB =  10
+   RE =  0
+   RC =  1
+   CJS =  0
+   CJE =  4.493e-12
+   CJC =  3.638e-12
+   VJE =  0.75
+   VJC =  0.75
+   TF =  3.012e-10
+   TR =  2.395e-07
+   MJE =  0.2593
+   MJC =  0.3085
+   VA =  74.03
+   ISE =  6.734e-15
+   IKF =  0.06678
+   NE =  1.259
+   NF =  1
+   NR =  1
+   VAR =  1e+30
+   IKR =  0
+   ISC =  0
+   NC =  2
+   IRB =  1e+30
+   RBM =  0
+   XTF =  2
+   VTF =  4
+   ITF =  0.4
+   PTF =  0
+   XCJC =  1
+   VJS =  0.75
+   MJS =  0
+   XTB =  1.5
+   EG =  1.11
+   XTI =  3
+   KF =  0
+   AF =  1
+   FC =  0.5
+   TNOM =  27
)

.MODEL 2N4123 NPN (
+   IS =  6.734e-15
+   BF =  335.3
+   BR =  0.7925
+   RB =  10
+   RE =  0
+   RC =  1
+   CJS =  0
+   CJE =  4.493e-12
+   CJC =  3.638e-12
+   VJE =  0.75
+   VJC =  0.75
+   TF =  3.008e-10
+   TR =  2.431e-07
+   MJE =  0.2593
+   MJC =  0.3085
+   VA =  74.03
+   ISE =  6.734e-15
+   IKF =  0.06127
+   NE =  1.216
+   NF =  1
+   NR =  1
+   VAR =  1e+30
+   IKR =  0
+   ISC =  0
+   NC =  2
+   IRB =  1e+30
+   RBM =  0
+   XTF =  2
+   VTF =  4
+   ITF =  0.4
+   PTF =  0
+   XCJC =  1
+   VJS =  0.75
+   MJS =  0
+   XTB =  1.5
+   EG =  1.11
+   XTI =  3
+   KF =  0
+   AF =  1
+   FC =  0.5
+   TNOM =  27
)

.MODEL 2N4124 NPN (
+   IS =  6.734e-15
+   BF =  495
+   BR =  0.7214
+   RB =  10
+   RE =  0
+   RC =  1
+   CJS =  0
+   CJE =  4.493e-12
+   CJC =  3.638e-12
+   VJE =  0.75
+   VJC =  0.75
+   TF =  3.013e-10
+   TR =  2.383e-07
+   MJE =  0.2593
+   MJC =  0.3085
+   VA =  74.03
+   ISE =  6.734e-15
+   IKF =  0.06935
+   NE =  1.28
+   NF =  1
+   NR =  1
+   VAR =  1e+30
+   IKR =  0
+   ISC =  0
+   NC =  2
+   IRB =  1e+30
+   RBM =  0
+   XTF =  2
+   VTF =  4
+   ITF =  0.4
+   PTF =  0
+   XCJC =  1
+   VJS =  0.75
+   MJS =  0
+   XTB =  1.5
+   EG =  1.11
+   XTI =  3
+   KF =  0
+   AF =  1
+   FC =  0.5
+   TNOM =  27
)

.MODEL 2N4286 NPN (
+   IS =  5.911e-15
+   BF =  610.7
+   BR =  1.308
+   RB =  10
+   RE =  0
+   RC =  1.61
+   CJS =  0
+   CJE =  4.973e-12
+   CJC =  4.017e-12
+   VJE =  0.75
+   VJC =  0.75
+   TF =  8.2e-10
+   TR =  4.696e-09
+   MJE =  0.4146
+   MJC =  0.3174
+   VA =  62.37
+   ISE =  5.911e-15
+   IKF =  0.01363
+   NE =  1.327
+   NF =  1
+   NR =  1
+   VAR =  1e+30
+   IKR =  0
+   ISC =  0
+   NC =  2
+   IRB =  1e+30
+   RBM =  0
+   XTF =  7
+   VTF =  4
+   ITF =  0.35
+   PTF =  0
+   XCJC =  1
+   VJS =  0.75
+   MJS =  0
+   XTB =  1.5
+   EG =  1.11
+   XTI =  3
+   KF =  0
+   AF =  1
+   FC =  0.5
+   TNOM =  27
)

.MODEL 2N4400 NPN (
+   IS =  2.603e-14
+   BF =  7756
+   BR =  1.06
+   RB =  10
+   RE =  0
+   RC =  0.5
+   CJS =  0
+   CJE =  2.407e-11
+   CJC =  1.101e-11
+   VJE =  0.75
+   VJC =  0.75
+   TF =  5.732e-10
+   TR =  2.44e-07
+   MJE =  0.3641
+   MJC =  0.3763
+   VA =  90.7
+   ISE =  2.67e-14
+   IKF =  0.2397
+   NE =  1.204
+   NF =  1
+   NR =  1
+   VAR =  1e+30
+   IKR =  0
+   ISC =  0
+   NC =  2
+   IRB =  1e+30
+   RBM =  0
+   XTF =  0
+   VTF =  0
+   ITF =  0
+   PTF =  0
+   XCJC =  1
+   VJS =  0.75
+   MJS =  0
+   XTB =  1.5
+   EG =  1.11
+   XTI =  3
+   KF =  0
+   AF =  1
+   FC =  0.5
+   TNOM =  27
)

.MODEL 2N4401 NPN (
+   IS =  2.603e-14
+   BF =  4292
+   BR =  1.01
+   RB =  10
+   RE =  0
+   RC =  0.5
+   CJS =  0
+   CJE =  2.407e-11
+   CJC =  1.101e-11
+   VJE =  0.75
+   VJC =  0.75
+   TF =  4.665e-10
+   TR =  2.337e-07
+   MJE =  0.3641
+   MJC =  0.3763
+   VA =  90.7
+   ISE =  2.603e-14
+   IKF =  0.2061
+   NE =  1.244
+   NF =  1
+   NR =  1
+   VAR =  1e+30
+   IKR =  0
+   ISC =  0
+   NC =  2
+   IRB =  1e+30
+   RBM =  0
+   XTF =  0
+   VTF =  0
+   ITF =  0
+   PTF =  0
+   XCJC =  1
+   VJS =  0.75
+   MJS =  0
+   XTB =  1.5
+   EG =  1.11
+   XTI =  3
+   KF =  0
+   AF =  1
+   FC =  0.5
+   TNOM =  27
)

.MODEL 2N4409 NPN (
+   IS =  5.911e-15
+   BF =  413.6
+   BR =  1.361
+   RB =  10
+   RE =  0
+   RC =  1.61
+   CJS =  0
+   CJE =  4.973e-12
+   CJC =  4.017e-12
+   VJE =  0.75
+   VJC =  0.75
+   TF =  8.184e-10
+   TR =  4.749e-09
+   MJE =  0.4146
+   MJC =  0.3174
+   VA =  62.37
+   ISE =  5.911e-15
+   IKF =  0.0126
+   NE =  1.278
+   NF =  1
+   NR =  1
+   VAR =  1e+30
+   IKR =  0
+   ISC =  0
+   NC =  2
+   IRB =  1e+30
+   RBM =  0
+   XTF =  7
+   VTF =  4
+   ITF =  0.35
+   PTF =  0
+   XCJC =  1
+   VJS =  0.75
+   MJS =  0
+   XTB =  1.5
+   EG =  1.11
+   XTI =  3
+   KF =  0
+   AF =  1
+   FC =  0.5
+   TNOM =  27
)

.MODEL 2N4410 NPN (
+   IS =  5.911e-15
+   BF =  413.6
+   BR =  1.361
+   RB =  10
+   RE =  0
+   RC =  1.61
+   CJS =  0
+   CJE =  4.973e-12
+   CJC =  4.017e-12
+   VJE =  0.75
+   VJC =  0.75
+   TF =  8.184e-10
+   TR =  4.749e-09
+   MJE =  0.4146
+   MJC =  0.3174
+   VA =  62.37
+   ISE =  5.911e-15
+   IKF =  0.0126
+   NE =  1.278
+   NF =  1
+   NR =  1
+   VAR =  1e+30
+   IKR =  0
+   ISC =  0
+   NC =  2
+   IRB =  1e+30
+   RBM =  0
+   XTF =  7
+   VTF =  4
+   ITF =  0.35
+   PTF =  0
+   XCJC =  1
+   VJS =  0.75
+   MJS =  0
+   XTB =  1.5
+   EG =  1.11
+   XTI =  3
+   KF =  0
+   AF =  1
+   FC =  0.5
+   TNOM =  27
)

.MODEL 2N4424 NPN (
+   IS =  1.203e-14
+   BF =  377.5
+   BR =  4.379
+   RB =  10
+   RE =  0
+   RC =  1
+   CJS =  0
+   CJE =  8.307e-12
+   CJC =  5.777e-12
+   VJE =  0.75
+   VJC =  0.75
+   TF =  3.854e-10
+   TR =  7.076e-10
+   MJE =  0.384
+   MJC =  0.3199
+   VA =  37.37
+   ISE =  3.346e-12
+   IKF =  0.1072
+   NE =  1.971
+   NF =  1
+   NR =  1
+   VAR =  1e+30
+   IKR =  0
+   ISC =  0
+   NC =  2
+   IRB =  1e+30
+   RBM =  0
+   XTF =  8
+   VTF =  3
+   ITF =  0.17
+   PTF =  0
+   XCJC =  1
+   VJS =  0.75
+   MJS =  0
+   XTB =  1.5
+   EG =  1.11
+   XTI =  3
+   KF =  0
+   AF =  1
+   FC =  0.5
+   TNOM =  27
)

.MODEL 2N5088 NPN (
+   IS =  5.911e-15
+   BF =  1122
+   BR =  1.271
+   RB =  10
+   RE =  0
+   RC =  1.61
+   CJS =  0
+   CJE =  4.973e-12
+   CJC =  4.017e-12
+   VJE =  0.75
+   VJC =  0.75
+   TF =  8.217e-10
+   TR =  4.673e-09
+   MJE =  0.4146
+   MJC =  0.3174
+   VA =  62.37
+   ISE =  5.911e-15
+   IKF =  0.01492
+   NE =  1.394
+   NF =  1
+   NR =  1
+   VAR =  1e+30
+   IKR =  0
+   ISC =  0
+   NC =  2
+   IRB =  1e+30
+   RBM =  0
+   XTF =  7
+   VTF =  4
+   ITF =  0.35
+   PTF =  0
+   XCJC =  1
+   VJS =  0.75
+   MJS =  0
+   XTB =  1.5
+   EG =  1.11
+   XTI =  3
+   KF =  0
+   AF =  1
+   FC =  0.5
+   TNOM =  27
)

.MODEL 2N5089 NPN (
+   IS =  5.911e-15
+   BF =  1434
+   BR =  1.262
+   RB =  10
+   RE =  0
+   RC =  1.61
+   CJS =  0
+   CJE =  4.973e-12
+   CJC =  4.017e-12
+   VJE =  0.75
+   VJC =  0.75
+   TF =  8.223e-10
+   TR =  4.671e-09
+   MJE =  0.4146
+   MJC =  0.3174
+   VA =  62.37
+   ISE =  5.911e-15
+   IKF =  0.0154
+   NE =  1.421
+   NF =  1
+   NR =  1
+   VAR =  1e+30
+   IKR =  0
+   ISC =  0
+   NC =  2
+   IRB =  1e+30
+   RBM =  0
+   XTF =  7
+   VTF =  4
+   ITF =  0.35
+   PTF =  0
+   XCJC =  1
+   VJS =  0.75
+   MJS =  0
+   XTB =  1.5
+   EG =  1.11
+   XTI =  3
+   KF =  0
+   AF =  1
+   FC =  0.5
+   TNOM =  27
)

.MODEL 2N5172 NPN (
+   IS =  1.203e-14
+   BF =  308.3
+   BR =  4.379
+   RB =  10
+   RE =  0
+   RC =  1
+   CJS =  0
+   CJE =  8.307e-12
+   CJC =  5.777e-12
+   VJE =  0.75
+   VJC =  0.75
+   TF =  3.854e-10
+   TR =  7.189e-10
+   MJE =  0.384
+   MJC =  0.3199
+   VA =  37.37
+   ISE =  4.098e-12
+   IKF =  0.1072
+   NE =  1.971
+   NF =  1
+   NR =  1
+   VAR =  1e+30
+   IKR =  0
+   ISC =  0
+   NC =  2
+   IRB =  1e+30
+   RBM =  0
+   XTF =  8
+   VTF =  3
+   ITF =  0.17
+   PTF =  0
+   XCJC =  1
+   VJS =  0.75
+   MJS =  0
+   XTB =  1.5
+   EG =  1.11
+   XTI =  3
+   KF =  0
+   AF =  1
+   FC =  0.5
+   TNOM =  27
)

.MODEL 2N5209 NPN (
+   IS =  5.911e-15
+   BF =  486.8
+   BR =  1.333
+   RB =  10
+   RE =  0
+   RC =  1.61
+   CJS =  0
+   CJE =  4.973e-12
+   CJC =  4.017e-12
+   VJE =  0.75
+   VJC =  0.75
+   TF =  8.192e-10
+   TR =  4.72e-09
+   MJE =  0.4146
+   MJC =  0.3174
+   VA =  62.37
+   ISE =  5.911e-15
+   IKF =  0.01307
+   NE =  1.3
+   NF =  1
+   NR =  1
+   VAR =  1e+30
+   IKR =  0
+   ISC =  0
+   NC =  2
+   IRB =  1e+30
+   RBM =  0
+   XTF =  7
+   VTF =  4
+   ITF =  0.35
+   PTF =  0
+   XCJC =  1
+   VJS =  0.75
+   MJS =  0
+   XTB =  1.5
+   EG =  1.11
+   XTI =  3
+   KF =  0
+   AF =  1
+   FC =  0.5
+   TNOM =  27
)

.MODEL 2N5210 NPN (
+   IS =  5.911e-15
+   BF =  809.9
+   BR =  1.287
+   RB =  10
+   RE =  0
+   RC =  1.61
+   CJS =  0
+   CJE =  4.973e-12
+   CJC =  4.017e-12
+   VJE =  0.75
+   VJC =  0.75
+   TF =  8.209e-10
+   TR =  4.68e-09
+   MJE =  0.4146
+   MJC =  0.3174
+   VA =  62.37
+   ISE =  5.911e-15
+   IKF =  0.01426
+   NE =  1.358
+   NF =  1
+   NR =  1
+   VAR =  1e+30
+   IKR =  0
+   ISC =  0
+   NC =  2
+   IRB =  1e+30
+   RBM =  0
+   XTF =  7
+   VTF =  4
+   ITF =  0.35
+   PTF =  0
+   XCJC =  1
+   VJS =  0.75
+   MJS =  0
+   XTB =  1.5
+   EG =  1.11
+   XTI =  3
+   KF =  0
+   AF =  1
+   FC =  0.5
+   TNOM =  27
)

.MODEL 2N5223 NPN (
+   IS =  6.101e-14
+   BF =  309.5
+   BR =  0.2094
+   RB =  10
+   RE =  0
+   RC =  2.14
+   CJS =  0
+   CJE =  5.928e-12
+   CJC =  6.072e-12
+   VJE =  0.75
+   VJC =  0.75
+   TF =  3.164e-10
+   TR =  1.531e-06
+   MJE =  0.3333
+   MJC =  0.3333
+   VA =  57.37
+   ISE =  6.101e-14
+   IKF =  0.101
+   NE =  1.33
+   NF =  1
+   NR =  1
+   VAR =  1e+30
+   IKR =  0
+   ISC =  0
+   NC =  2
+   IRB =  1e+30
+   RBM =  0
+   XTF =  8
+   VTF =  5
+   ITF =  0.2
+   PTF =  0
+   XCJC =  1
+   VJS =  0.75
+   MJS =  0
+   XTB =  1.5
+   EG =  1.11
+   XTI =  3
+   KF =  0
+   AF =  1
+   FC =  0.5
+   TNOM =  27
)

.MODEL 2N5224 NPN (
+   IS =  4.414e-14
+   BF =  78.32
+   BR =  0.01269
+   RB =  10
+   RE =  0
+   RC =  0.6
+   CJS =  0
+   CJE =  4.5e-12
+   CJC =  2.83e-12
+   VJE =  0.75
+   VJC =  0.75
+   TF =  2.276e-10
+   TR =  1.073e-06
+   MJE =  0.2418
+   MJC =  0.08619
+   VA =  100
+   ISE =  9.195e-14
+   IKF =  0.3498
+   NE =  1.389
+   NF =  1
+   NR =  1
+   VAR =  1e+30
+   IKR =  0
+   ISC =  0
+   NC =  2
+   IRB =  1e+30
+   RBM =  0
+   XTF =  4
+   VTF =  4
+   ITF =  0.3
+   PTF =  0
+   XCJC =  1
+   VJS =  0.75
+   MJS =  0
+   XTB =  1.5
+   EG =  1.11
+   XTI =  3
+   KF =  0
+   AF =  1
+   FC =  0.5
+   TNOM =  27
)

.MODEL 2N5232 NPN (
+   IS =  5.911e-15
+   BF =  675.5
+   BR =  1.299
+   RB =  10
+   RE =  0
+   RC =  1.61
+   CJS =  0
+   CJE =  4.973e-12
+   CJC =  4.017e-12
+   VJE =  0.75
+   VJC =  0.75
+   TF =  8.203e-10
+   TR =  4.689e-09
+   MJE =  0.4146
+   MJC =  0.3174
+   VA =  62.37
+   ISE =  5.911e-15
+   IKF =  0.01386
+   NE =  1.338
+   NF =  1
+   NR =  1
+   VAR =  1e+30
+   IKR =  0
+   ISC =  0
+   NC =  2
+   IRB =  1e+30
+   RBM =  0
+   XTF =  7
+   VTF =  4
+   ITF =  0.35
+   PTF =  0
+   XCJC =  1
+   VJS =  0.75
+   MJS =  0
+   XTB =  1.5
+   EG =  1.11
+   XTI =  3
+   KF =  0
+   AF =  1
+   FC =  0.5
+   TNOM =  27
)

.MODEL 2N5232A NPN (
+   IS =  5.911e-15
+   BF =  675.5
+   BR =  1.299
+   RB =  10
+   RE =  0
+   RC =  1.61
+   CJS =  0
+   CJE =  4.973e-12
+   CJC =  4.017e-12
+   VJE =  0.75
+   VJC =  0.75
+   TF =  8.203e-10
+   TR =  4.689e-09
+   MJE =  0.4146
+   MJC =  0.3174
+   VA =  62.37
+   ISE =  5.911e-15
+   IKF =  0.01386
+   NE =  1.338
+   NF =  1
+   NR =  1
+   VAR =  1e+30
+   IKR =  0
+   ISC =  0
+   NC =  2
+   IRB =  1e+30
+   RBM =  0
+   XTF =  7
+   VTF =  4
+   ITF =  0.35
+   PTF =  0
+   XCJC =  1
+   VJS =  0.75
+   MJS =  0
+   XTB =  1.5
+   EG =  1.11
+   XTI =  3
+   KF =  0
+   AF =  1
+   FC =  0.5
+   TNOM =  27
)

.MODEL 2N5550 NPN (
+   IS =  2.511e-15
+   BF =  213.4
+   BR =  3.24
+   RB =  10
+   RE =  0
+   RC =  1
+   CJS =  0
+   CJE =  1.879e-11
+   CJC =  4.883e-12
+   VJE =  0.75
+   VJC =  0.75
+   TF =  5.601e-10
+   TR =  1.212e-09
+   MJE =  0.3416
+   MJC =  0.3047
+   VA =  100
+   ISE =  2.511e-15
+   IKF =  0.3495
+   NE =  1.241
+   NF =  1
+   NR =  1
+   VAR =  1e+30
+   IKR =  0
+   ISC =  0
+   NC =  2
+   IRB =  1e+30
+   RBM =  0
+   XTF =  8
+   VTF =  5
+   ITF =  0.05
+   PTF =  0
+   XCJC =  1
+   VJS =  0.75
+   MJS =  0
+   XTB =  1.5
+   EG =  1.11
+   XTI =  3
+   KF =  0
+   AF =  1
+   FC =  0.5
+   TNOM =  27
)

.MODEL 2N5551 NPN (
+   IS =  2.511e-15
+   BF =  242.6
+   BR =  3.197
+   RB =  10
+   RE =  0
+   RC =  1
+   CJS =  0
+   CJE =  1.879e-11
+   CJC =  4.883e-12
+   VJE =  0.75
+   VJC =  0.75
+   TF =  5.6e-10
+   TR =  1.202e-09
+   MJE =  0.3416
+   MJC =  0.3047
+   VA =  100
+   ISE =  2.511e-15
+   IKF =  0.3458
+   NE =  1.249
+   NF =  1
+   NR =  1
+   VAR =  1e+30
+   IKR =  0
+   ISC =  0
+   NC =  2
+   IRB =  1e+30
+   RBM =  0
+   XTF =  8
+   VTF =  5
+   ITF =  0.05
+   PTF =  0
+   XCJC =  1
+   VJS =  0.75
+   MJS =  0
+   XTB =  1.5
+   EG =  1.11
+   XTI =  3
+   KF =  0
+   AF =  1
+   FC =  0.5
+   TNOM =  27
)

.MODEL 2N5769 NPN (
+   IS =  4.414e-14
+   BF =  78.32
+   BR =  0.01269
+   RB =  10
+   RE =  0
+   RC =  0.6
+   CJS =  0
+   CJE =  4.5e-12
+   CJC =  2.83e-12
+   VJE =  0.75
+   VJC =  0.75
+   TF =  2.276e-10
+   TR =  1.073e-06
+   MJE =  0.2418
+   MJC =  0.08619
+   VA =  100
+   ISE =  9.195e-14
+   IKF =  0.3498
+   NE =  1.389
+   NF =  1
+   NR =  1
+   VAR =  1e+30
+   IKR =  0
+   ISC =  0
+   NC =  2
+   IRB =  1e+30
+   RBM =  0
+   XTF =  4
+   VTF =  4
+   ITF =  0.3
+   PTF =  0
+   XCJC =  1
+   VJS =  0.75
+   MJS =  0
+   XTB =  1.5
+   EG =  1.11
+   XTI =  3
+   KF =  0
+   AF =  1
+   FC =  0.5
+   TNOM =  27
)

.MODEL 2N5830 NPN (
+   IS =  2.511e-15
+   BF =  325.3
+   BR =  3.102
+   RB =  10
+   RE =  0
+   RC =  1
+   CJS =  0
+   CJE =  1.879e-11
+   CJC =  4.883e-12
+   VJE =  0.75
+   VJC =  0.75
+   TF =  5.603e-10
+   TR =  1.186e-09
+   MJE =  0.3416
+   MJC =  0.3047
+   VA =  100
+   ISE =  2.511e-15
+   IKF =  0.3563
+   NE =  1.272
+   NF =  1
+   NR =  1
+   VAR =  1e+30
+   IKR =  0
+   ISC =  0
+   NC =  2
+   IRB =  1e+30
+   RBM =  0
+   XTF =  8
+   VTF =  5
+   ITF =  0.05
+   PTF =  0
+   XCJC =  1
+   VJS =  0.75
+   MJS =  0
+   XTB =  1.5
+   EG =  1.11
+   XTI =  3
+   KF =  0
+   AF =  1
+   FC =  0.5
+   TNOM =  27
)

.MODEL MPS2924 NPN (
+   IS =  6.734e-15
+   BF =  522
+   BR =  0.7179
+   RB =  10
+   RE =  0
+   RC =  1
+   CJS =  0
+   CJE =  4.493e-12
+   CJC =  3.638e-12
+   VJE =  0.75
+   VJC =  0.75
+   TF =  3.013e-10
+   TR =  2.38e-07
+   MJE =  0.2593
+   MJC =  0.3085
+   VA =  74.03
+   ISE =  6.734e-15
+   IKF =  0.07002
+   NE =  1.286
+   NF =  1
+   NR =  1
+   VAR =  1e+30
+   IKR =  0
+   ISC =  0
+   NC =  2
+   IRB =  1e+30
+   RBM =  0
+   XTF =  2
+   VTF =  4
+   ITF =  0.4
+   PTF =  0
+   XCJC =  1
+   VJS =  0.75
+   MJS =  0
+   XTB =  1.5
+   EG =  1.11
+   XTI =  3
+   KF =  0
+   AF =  1
+   FC =  0.5
+   TNOM =  27
)

.MODEL MPS2925 NPN (
+   IS =  6.734e-15
+   BF =  728.3
+   BR =  0.7024
+   RB =  10
+   RE =  0
+   RC =  1
+   CJS =  0
+   CJE =  4.493e-12
+   CJC =  3.638e-12
+   VJE =  0.75
+   VJC =  0.75
+   TF =  3.015e-10
+   TR =  2.367e-07
+   MJE =  0.2593
+   MJC =  0.3085
+   VA =  74.03
+   ISE =  6.734e-15
+   IKF =  0.07387
+   NE =  1.321
+   NF =  1
+   NR =  1
+   VAR =  1e+30
+   IKR =  0
+   ISC =  0
+   NC =  2
+   IRB =  1e+30
+   RBM =  0
+   XTF =  2
+   VTF =  4
+   ITF =  0.4
+   PTF =  0
+   XCJC =  1
+   VJS =  0.75
+   MJS =  0
+   XTB =  1.5
+   EG =  1.11
+   XTI =  3
+   KF =  0
+   AF =  1
+   FC =  0.5
+   TNOM =  27
)

.MODEL MPS2926 NPN (
+   IS =  6.734e-15
+   BF =  387.5
+   BR =  0.7466
+   RB =  10
+   RE =  0
+   RC =  1