
.MODEL BC107 NPN (
+   IS =  2.2874e-14
+   BF =  417.75
+   BR =  1.3169
+   RB =  0
+   RE =  0
+   RC =  1.2045
+   CJS =  0
+   CJE =  1.3491e-11
+   CJC =  6.2051e-12
+   VJE =  0.66248
+   VJC =  0.66321
+   TF =  4.2764e-10
+   TR =  1e-08
+   MJE =  0.61694
+   MJC =  0.32498
+   VA =  44.483
+   ISE =  2.2874e-14
+   IKF =  20
+   NE =  1.3575
+   NF =  1
+   NR =  1
+   VAR =  100
+   IKR =  0.01
+   ISC =  2.2874e-14
+   NC =  2.997
+   IRB =  1e+30
+   RBM =  0
+   XTF =  0
+   VTF =  1.4094
+   ITF =  329.92
+   PTF =  0
+   XCJC =  1
+   VJS =  0.75
+   MJS =  0
+   XTB =  0
+   EG =  1.11
+   XTI =  3
+   KF =  0
+   AF =  1
+   FC =  0.5
+   TNOM =  27
)
