
.MODEL 2T384am-2 NPN (
+   IS =  1.883e-14
+   BF =  127.8
+   BR =  1
+   RB =  10
+   RE =  0
+   RC =  0.701
+   CJS =  0
+   CJE =  1.002e-11
+   CJC =  2.434e-12
+   VJE =  1.442
+   VJC =  0.0002363
+   TF =  1.445e-10
+   TR =  2.216e-08
+   MJE =  0.6448
+   MJC =  0.03415
+   VA =  4.266
+   ISE =  2.847e-13
+   IKF =  0.7773
+   NE =  1.896
+   NF =  1
+   NR =  1
+   VAR =  1e+30
+   IKR =  0.2503
+   ISC =  5.433e-12
+   NC =  1.66
+   IRB =  1e+30
+   RBM =  0
+   XTF =  0.2323
+   VTF =  10
+   ITF =  0.07936
+   PTF =  0
+   XCJC =  1
+   VJS =  0.75
+   MJS =  0
+   XTB =  1.5
+   EG =  1.11
+   XTI =  3
+   KF =  0
+   AF =  1
+   FC =  0.5
+   TNOM =  27
)

.MODEL kt3102a NPN (
+   IS =  5.258e-15
+   BF =  185
+   BR =  2.713
+   RB =  52
+   RE =  0
+   RC =  1.65
+   CJS =  0
+   CJE =  1.13e-11
+   CJC =  9.921e-12
+   VJE =  0.69
+   VJC =  0.65
+   TF =  6.115e-10
+   TR =  5.771e-08
+   MJE =  0.33
+   MJC =  0.33
+   VA =  86
+   ISE =  2.821e-08
+   IKF =  0.4922
+   NE =  7.428
+   NF =  1
+   NR =  1
+   VAR =  25
+   IKR =  0.25
+   ISC =  2.12e-11
+   NC =  2
+   IRB =  1e+30
+   RBM =  0
+   XTF =  2
+   VTF =  80
+   ITF =  0.52
+   PTF =  0
+   XCJC =  1
+   VJS =  0.75
+   MJS =  0
+   XTB =  1.5
+   EG =  1.11
+   XTI =  3
+   KF =  0
+   AF =  1
+   FC =  0.5
+   TNOM =  27
)

.MODEL kt3102b NPN (
+   IS =  3.63e-15
+   BF =  303
+   BR =  3.201
+   RB =  37
+   RE =  0
+   RC =  1.12
+   CJS =  0
+   CJE =  1.331e-11
+   CJC =  1.102e-11
+   VJE =  0.69
+   VJC =  0.65
+   TF =  4.934e-10
+   TR =  4.167e-08
+   MJE =  0.33
+   MJC =  0.33
+   VA =  72
+   ISE =  4.335e-08
+   IKF =  0.09635
+   NE =  13.47
+   NF =  1
+   NR =  1
+   VAR =  30
+   IKR =  0.1
+   ISC =  5.5e-12
+   NC =  2
+   IRB =  1e+30
+   RBM =  0
+   XTF =  2
+   VTF =  50
+   ITF =  0.12
+   PTF =  0
+   XCJC =  1
+   VJS =  0.75
+   MJS =  0
+   XTB =  1.5
+   EG =  1.11
+   XTI =  3
+   KF =  0
+   AF =  1
+   FC =  0.5
+   TNOM =  27
)

.MODEL kt3102bm NPN (
+   IS =  8.914e-16
+   BF =  311.9
+   BR =  5.622
+   RB =  59
+   RE =  0
+   RC =  1.23
+   CJS =  0
+   CJE =  9.139e-12
+   CJC =  9.2e-12
+   VJE =  0.69
+   VJC =  0.65
+   TF =  7.865e-10
+   TR =  2.824e-08
+   MJE =  0.33
+   MJC =  0.33
+   VA =  64
+   ISE =  5.945e-10
+   IKF =  0.06016
+   NE =  4.136
+   NF =  1
+   NR =  1
+   VAR =  25
+   IKR =  0.25
+   ISC =  1.225e-12
+   NC =  2
+   IRB =  1e+30
+   RBM =  0
+   XTF =  2
+   VTF =  30
+   ITF =  0.2
+   PTF =  0
+   XCJC =  1
+   VJS =  0.75
+   MJS =  0
+   XTB =  1.5
+   EG =  1.11
+   XTI =  3
+   KF =  0
+   AF =  1
+   FC =  0.5
+   TNOM =  27
)

.MODEL KT3102G NPN (
+   IS =  1e-14
+   BF =  1000
+   BR =  1
+   RB =  5
+   RE =  0.5
+   RC =  0
+   CJS =  0
+   CJE =  8e-12
+   CJC =  6e-12
+   VJE =  0.75
+   VJC =  0.75
+   TF =  6e-10
+   TR =  1e-07
+   MJE =  0.33
+   MJC =  0.33
+   VA =  40
+   ISE =  5e-06
+   IKF =  0.1
+   NE =  4
+   NF =  1
+   NR =  1
+   VAR =  4
+   IKR =  1e+30
+   ISC =  1e-08
+   NC =  4
+   IRB =  1e+30
+   RBM =  0
+   XTF =  0
+   VTF =  1e+30
+   ITF =  0
+   PTF =  0
+   XCJC =  1
+   VJS =  0.75
+   MJS =  0
+   XTB =  0
+   EG =  1.11
+   XTI =  3
+   KF =  0
+   AF =  1
+   FC =  0.5
+   TNOM =  27
)

.MODEL KT3102V NPN (
+   IS =  1e-14
+   BF =  500
+   BR =  1
+   RB =  5
+   RE =  0.5
+   RC =  0
+   CJS =  0
+   CJE =  8e-12
+   CJC =  6e-12
+   VJE =  0.75
+   VJC =  0.75
+   TF =  6e-10
+   TR =  1e-07
+   MJE =  0.33
+   MJC =  0.33
+   VA =  50
+   ISE =  5e-06
+   IKF =  0.1
+   NE =  4
+   NF =  1
+   NR =  1
+   VAR =  6
+   IKR =  1e+30
+   ISC =  1e-08
+   NC =  4
+   IRB =  1e+30
+   RBM =  0
+   XTF =  0
+   VTF =  1e+30
+   ITF =  0
+   PTF =  0
+   XCJC =  1
+   VJS =  0.75
+   MJS =  0
+   XTB =  0
+   EG =  1.11
+   XTI =  3
+   KF =  0
+   AF =  1
+   FC =  0.5
+   TNOM =  27
)

.MODEL KT3117A NPN (
+   IS =  1e-14
+   BF =  200
+   BR =  1
+   RB =  5
+   RE =  0.5
+   RC =  0
+   CJS =  0
+   CJE =  3e-11
+   CJC =  1e-11
+   VJE =  0.75
+   VJC =  0.75
+   TF =  6e-10
+   TR =  2e-07
+   MJE =  0.33
+   MJC =  0.33
+   VA =  70
+   ISE =  1e-06
+   IKF =  0.4
+   NE =  4
+   NF =  1
+   NR =  1
+   VAR =  1e+30
+   IKR =  1e+30
+   ISC =  1e-06
+   NC =  4
+   IRB =  1e+30
+   RBM =  0
+   XTF =  0
+   VTF =  1e+30
+   ITF =  0
+   PTF =  0
+   XCJC =  1
+   VJS =  0.75
+   MJS =  0
+   XTB =  0
+   EG =  1.11
+   XTI =  3
+   KF =  0
+   AF =  1
+   FC =  0.5
+   TNOM =  27
)

.MODEL KT312B NPN (
+   IS =  2.368e-14
+   BF =  60
+   BR =  4.387
+   RB =  0
+   RE =  0
+   RC =  20
+   CJS =  0
+   CJE =  2.5e-11
+   CJC =  7e-12
+   VJE =  0.7
+   VJC =  0.7
+   TF =  1e-09
+   TR =  1.305e-07
+   MJE =  0.333
+   MJC =  0.333
+   VA =  60
+   ISE =  2.368e-14
+   IKF =  0.05
+   NE =  1.206
+   NF =  1
+   NR =  1
+   VAR =  1e+30
+   IKR =  0.04
+   ISC =  9e-10
+   NC =  1.8
+   IRB =  1e+30
+   RBM =  0
+   XTF =  1.1
+   VTF =  70
+   ITF =  0.04
+   PTF =  0
+   XCJC =  1
+   VJS =  0.75
+   MJS =  0
+   XTB =  1.5
+   EG =  1.11
+   XTI =  3
+   KF =  0
+   AF =  1
+   FC =  0.5
+   TNOM =  27
)

.MODEL kt315a NPN (
+   IS =  2.82e-15
+   BF =  55
+   BR =  0.6455
+   RB =  0
+   RE =  0
+   RC =  0
+   CJS =  0
+   CJE =  8.55e-12
+   CJC =  1.7e-11
+   VJE =  0.75
+   VJC =  0.75
+   TF =  1.02e-09
+   TR =  3.36e-06
+   MJE =  0.333
+   MJC =  0.333
+   VA =  3320
+   ISE =  5.541e-10
+   IKF =  0.01804
+   NE =  2.35
+   NF =  1
+   NR =  1
+   VAR =  1e+30
+   IKR =  0
+   ISC =  0
+   NC =  2
+   IRB =  1e+30
+   RBM =  0
+   XTF =  0
+   VTF =  0
+   ITF =  0
+   PTF =  0
+   XCJC =  1
+   VJS =  0.75
+   MJS =  0
+   XTB =  1.5
+   EG =  1.11
+   XTI =  3
+   KF =  0
+   AF =  1
+   FC =  0.5
+   TNOM =  27
)

.MODEL KT315B NPN (
+   IS =  1e-14
+   BF =  3
+   BR =  1
+   RB =  3
+   RE =  0.5
+   RC =  0.2
+   CJS =  0
+   CJE =  7e-12
+   CJC =  7e-12
+   VJE =  0.75
+   VJC =  0.75
+   TF =  5e-10
+   TR =  1.7e-07
+   MJE =  0.33
+   MJC =  0.33
+   VA =  40
+   ISE =  1e-07
+   IKF =  0.1
+   NE =  4
+   NF =  1
+   NR =  1
+   VAR =  1e+30
+   IKR =  1e+30
+   ISC =  1e-07
+   NC =  4
+   IRB =  1e+30
+   RBM =  0
+   XTF =  0
+   VTF =  1e+30
+   ITF =  0
+   PTF =  0
+   XCJC =  1
+   VJS =  0.75
+   MJS =  0
+   XTB =  0
+   EG =  1.11
+   XTI =  3
+   KF =  4e-15
+   AF =  1
+   FC =  0.5
+   TNOM =  27
)

.MODEL KT315D NPN (
+   IS =  1e-14
+   BF =  90
+   BR =  1
+   RB =  3
+   RE =  0.5
+   RC =  0.2
+   CJS =  0
+   CJE =  7e-12
+   CJC =  7e-12
+   VJE =  0.75
+   VJC =  0.75
+   TF =  1e-09
+   TR =  1.7e-07
+   MJE =  0.33
+   MJC =  0.33
+   VA =  60
+   ISE =  1e-07
+   IKF =  0.1
+   NE =  4
+   NF =  1
+   NR =  1
+   VAR =  1e+30
+   IKR =  1e+30
+   ISC =  1e-07
+   NC =  4
+   IRB =  1e+30
+   RBM =  0
+   XTF =  0
+   VTF =  1e+30
+   ITF =  0
+   PTF =  0
+   XCJC =  1
+   VJS =  0.75
+   MJS =  0
+   XTB =  0
+   EG =  1.11
+   XTI =  3
+   KF =  4e-15
+   AF =  1
+   FC =  0.5
+   TNOM =  27
)

.MODEL KT315E NPN (
+   IS =  1e-14
+   BF =  350
+   BR =  1
+   RB =  3
+   RE =  0.5
+   RC =  0.2
+   CJS =  0
+   CJE =  7e-12
+   CJC =  7e-12
+   VJE =  0.75
+   VJC =  0.75
+   TF =  1e-09
+   TR =  1.7e-07
+   MJE =  0.33
+   MJC =  0.33
+   VA =  55
+   ISE =  1e-07
+   IKF =  0.1
+   NE =  4
+   NF =  1
+   NR =  1
+   VAR =  1e+30
+   IKR =  1e+30
+   ISC =  1e-07
+   NC =  4
+   IRB =  1e+30
+   RBM =  0
+   XTF =  0
+   VTF =  1e+30
+   ITF =  0
+   PTF =  0
+   XCJC =  1
+   VJS =  0.75
+   MJS =  0
+   XTB =  0
+   EG =  1.11
+   XTI =  3
+   KF =  4e-15
+   AF =  1
+   FC =  0.5
+   TNOM =  27
)

.MODEL KT315G NPN (
+   IS =  1e-14
+   BF =  350
+   BR =  1
+   RB =  3
+   RE =  0.5
+   RC =  0.2
+   CJS =  0
+   CJE =  7e-12
+   CJC =  7e-12
+   VJE =  0.75
+   VJC =  0.75
+   TF =  5e-10
+   TR =  1.7e-07
+   MJE =  0.33
+   MJC =  0.33
+   VA =  55
+   ISE =  1e-07
+   IKF =  0.1
+   NE =  4
+   NF =  1
+   NR =  1
+   VAR =  1e+30
+   IKR =  1e+30
+   ISC =  1e-07
+   NC =  4
+   IRB =  1e+30
+   RBM =  0
+   XTF =  0
+   VTF =  1e+30
+   ITF =  0
+   PTF =  0
+   XCJC =  1
+   VJS =  0.75
+   MJS =  0
+   XTB =  0
+   EG =  1.11
+   XTI =  3
+   KF =  4e-15
+   AF =  1
+   FC =  0.5
+   TNOM =  27
)

.MODEL KT315GE NPN (
+   IS =  1e-14
+   BF =  250
+   BR =  1
+   RB =  3
+   RE =  0.5
+   RC =  0.2
+   CJS =  0
+   CJE =  7e-12
+   CJC =  7e-12
+   VJE =  0.75
+   VJC =  0.75
+   TF =  1e-09
+   TR =  1.7e-07
+   MJE =  0.33
+   MJC =  0.33
+   VA =  35
+   ISE =  1e-07
+   IKF =  0.05
+   NE =  4
+   NF =  1
+   NR =  1
+   VAR =  1e+30
+   IKR =  1e+30
+   ISC =  1e-07
+   NC =  4
+   IRB =  1e+30
+   RBM =  0
+   XTF =  0
+   VTF =  1e+30
+   ITF =  0
+   PTF =  0
+   XCJC =  1
+   VJS =  0.75
+   MJS =  0
+   XTB =  0
+   EG =  1.11
+   XTI =  3
+   KF =  4e-15
+   AF =  1
+   FC =  0.5
+   TNOM =  27
)

.MODEL KT315I NPN (
+   IS =  1e-14
+   BF =  50
+   BR =  1
+   RB =  3
+   RE =  0.5
+   RC =  0.2
+   CJS =  0
+   CJE =  7e-12
+   CJC =  7e-12
+   VJE =  0.75
+   VJC =  0.75
+   TF =  8e-10
+   TR =  1.7e-07
+   MJE =  0.33
+   MJC =  0.33
+   VA =  80
+   ISE =  1e-07
+   IKF =  0.05
+   NE =  4
+   NF =  1
+   NR =  1
+   VAR =  1e+30
+   IKR =  1e+30
+   ISC =  1e-07
+   NC =  4
+   IRB =  1e+30
+   RBM =  0
+   XTF =  0
+   VTF =  1e+30
+   ITF =  0
+   PTF =  0
+   XCJC =  1
+   VJS =  0.75
+   MJS =  0
+   XTB =  0
+   EG =  1.11
+   XTI =  3
+   KF =  4e-15
+   AF =  1
+   FC =  0.5
+   TNOM =  27
)

.MODEL KT315V NPN (
+   IS =  1e-14
+   BF =  90
+   BR =  1
+   RB =  3
+   RE =  0.5
+   RC =  0.2
+   CJS =  0
+   CJE =  7e-12
+   CJC =  7e-12
+   VJE =  0.75
+   VJC =  0.75
+   TF =  5e-10
+   TR =  1.7e-07
+   MJE =  0.33
+   MJC =  0.33
+   VA =  60
+   ISE =  1e-07
+   IKF =  0.1
+   NE =  4
+   NF =  1
+   NR =  1
+   VAR =  1e+30
+   IKR =  1e+30
+   ISC =  1e-07
+   NC =  4
+   IRB =  1e+30
+   RBM =  0
+   XTF =  0
+   VTF =  1e+30
+   ITF =  0
+   PTF =  0
+   XCJC =  1
+   VJS =  0.75
+   MJS =  0
+   XTB =  0
+   EG =  1.11
+   XTI =  3
+   KF =  4e-15
+   AF =  1
+   FC =  0.5
+   TNOM =  27
)

.MODEL kt316d NPN (
+   IS =  2.75e-12
+   BF =  136.5
+   BR =  0.66
+   RB =  70.6
+   RE =  0
+   RC =  8.4
+   CJS =  0
+   CJE =  1.16e-12
+   CJC =  4.1e-12
+   VJE =  0.69
+   VJC =  0.65
+   TF =  7.9e-11
+   TR =  2.78e-08
+   MJE =  0.33
+   MJC =  0.33
+   VA =  96
+   ISE =  1.28e-11
+   IKF =  0.09723
+   NE =  2.496
+   NF =  1
+   NR =  1
+   VAR =  55
+   IKR =  0.12
+   ISC =  1.55e-11
+   NC =  2
+   IRB =  1e+30
+   RBM =  0
+   XTF =  2
+   VTF =  25
+   ITF =  0.151
+   PTF =  0
+   XCJC =  1
+   VJS =  0.75
+   MJS =  0
+   XTB =  1.5
+   EG =  1.11
+   XTI =  3
+   KF =  0
+   AF =  1
+   FC =  0.5
+   TNOM =  27
)

.MODEL KT385AM2 NPN (
+   IS =  2.115e-14
+   BF =  90
+   BR =  1
+   RB =  0
+   RE =  0
+   RC =  4
+   CJS =  0
+   CJE =  1.5e-11
+   CJC =  3e-12
+   VJE =  0.75
+   VJC =  0.75
+   TF =  6.228e-10
+   TR =  1e-08
+   MJE =  0.333
+   MJC =  0.333
+   VA =  80
+   ISE =  1e-08
+   IKF =  0.25
+   NE =  1.5
+   NF =  1
+   NR =  1
+   VAR =  1e+30
+   IKR =  0.3
+   ISC =  1e-08
+   NC =  2
+   IRB =  1e+30
+   RBM =  0
+   XTF =  1.3
+   VTF =  70
+   ITF =  0.3
+   PTF =  0
+   XCJC =  1
+   VJS =  0.75
+   MJS =  0
+   XTB =  1.5
+   EG =  1.11
+   XTI =  3
+   KF =  0
+   AF =  1
+   FC =  0.5
+   TNOM =  27
)

.MODEL KT399A NPN (
+   IS =  4.1e-15
+   BF =  105
+   BR =  3
+   RB =  0
+   RE =  0
+   RC =  10
+   CJS =  0
+   CJE =  3.316e-12
+   CJC =  2.17e-12
+   VJE =  0.75
+   VJC =  0.75
+   TF =  3.091e-11
+   TR =  8e-11
+   MJE =  0.333
+   MJC =  0.333
+   VA =  20
+   ISE =  1e-07
+   IKF =  0.015
+   NE =  1.5
+   NF =  1
+   NR =  1
+   VAR =  1e+30
+   IKR =  0.018
+   ISC =  1e-07
+   NC =  2
+   IRB =  1e+30
+   RBM =  0
+   XTF =  1.1
+   VTF =  15
+   ITF =  0.04
+   PTF =  0
+   XCJC =  1
+   VJS =  0.75
+   MJS =  0
+   XTB =  1.5
+   EG =  1.11
+   XTI =  3
+   KF =  0
+   AF =  1
+   FC =  0.5
+   TNOM =  27
)

.MODEL KT608A NPN (
+   IS =  1e-12
+   BF =  80
+   BR =  1
+   RB =  3
+   RE =  0.5
+   RC =  0
+   CJS =  0
+   CJE =  3e-11
+   CJC =  1.2e-11
+   VJE =  0.75
+   VJC =  0.75
+   TF =  6e-10
+   TR =  5e-08
+   MJE =  0.33
+   MJC =  0.33
+   VA =  60
+   ISE =  1e-05
+   IKF =  0.4
+   NE =  4
+   NF =  1
+   NR =  1
+   VAR =  8
+   IKR =  1e+30
+   ISC =  1e-05
+   NC =  4
+   IRB =  1e+30
+   RBM =  0
+   XTF =  0
+   VTF =  1e+30
+   ITF =  0
+   PTF =  0
+   XCJC =  1
+   VJS =  0.75
+   MJS =  0
+   XTB =  0
+   EG =  1.11
+   XTI =  3
+   KF =  0
+   AF =  1
+   FC =  0.5
+   TNOM =  27
)

.MODEL KT608B NPN (
+   IS =  1e-12
+   BF =  160
+   BR =  1
+   RB =  3
+   RE =  0.5
+   RC =  0
+   CJS =  0
+   CJE =  3e-11
+   CJC =  1.2e-11
+   VJE =  0.75
+   VJC =  0.75
+   TF =  6e-10
+   TR =  5e-08
+   MJE =  0.33
+   MJC =  0.33
+   VA =  60
+   ISE =  1e-05
+   IKF =  0.4
+   NE =  4
+   NF =  1
+   NR =  1
+   VAR =  8
+   IKR =  1e+30
+   ISC =  1e-05
+   NC =  4
+   IRB =  1e+30
+   RBM =  0
+   XTF =  0
+   VTF =  1e+30
+   ITF =  0
+   PTF =  0
+   XCJC =  1
+   VJS =  0.75
+   MJS =  0
+   XTB =  0
+   EG =  1.11
+   XTI =  3
+   KF =  0
+   AF =  1
+   FC =  0.5
+   TNOM =  27
)

.MODEL KT630A NPN (
+   IS =  4.427e-16
+   BF =  80
+   BR =  1
+   RB =  0
+   RE =  0
+   RC =  0
+   CJS =  0
+   CJE =  6.5e-11
+   CJC =  2.5e-11
+   VJE =  0.75
+   VJC =  0.75
+   TF =  3.129e-09
+   TR =  1e-08
+   MJE =  0.333
+   MJC =  0.333
+   VA =  120
+   ISE =  1e-07
+   IKF =  0.8
+   NE =  1.5
+   NF =  1
+   NR =  1
+   VAR =  1e+30
+   IKR =  0.7
+   ISC =  1e-06
+   NC =  2
+   IRB =  1e+30
+   RBM =  0
+   XTF =  1.2
+   VTF =  120
+   ITF =  0.75
+   PTF =  0
+   XCJC =  1
+   VJS =  0.75
+   MJS =  0
+   XTB =  1.5
+   EG =  1.11
+   XTI =  3
+   KF =  0
+   AF =  1
+   FC =  0.5
+   TNOM =  27
)

.MODEL KT630B NPN (
+   IS =  4.427e-16
+   BF =  160
+   BR =  1
+   RB =  0
+   RE =  0
+   RC =  0
+   CJS =  0
+   CJE =  6.5e-11
+   CJC =  2.5e-11
+   VJE =  0.75
+   VJC =  0.75
+   TF =  3.129e-09
+   TR =  1e-08
+   MJE =  0.333
+   MJC =  0.333
+   VA =  120
+   ISE =  1e-07
+   IKF =  0.8
+   NE =  1.5
+   NF =  1
+   NR =  1
+   VAR =  1e+30
+   IKR =  0.7
+   ISC =  1e-06
+   NC =  2
+   IRB =  1e+30
+   RBM =  0
+   XTF =  1.2
+   VTF =  120
+   ITF =  0.75
+   PTF =  0
+   XCJC =  1
+   VJS =  0.75
+   MJS =  0
+   XTB =  1.5
+   EG =  1.11
+   XTI =  3
+   KF =  0
+   AF =  1
+   FC =  0.5
+   TNOM =  27
)

.MODEL KT630D NPN (
+   IS =  4.427e-16
+   BF =  300
+   BR =  1
+   RB =  0
+   RE =  0
+   RC =  0
+   CJS =  0
+   CJE =  6.5e-11
+   CJC =  2.5e-11
+   VJE =  0.75
+   VJC =  0.75
+   TF =  3.129e-09
+   TR =  1e-08
+   MJE =  0.333
+   MJC =  0.333
+   VA =  80
+   ISE =  1e-07
+   IKF =  0.8
+   NE =  1.5
+   NF =  1
+   NR =  1
+   VAR =  1e+30
+   IKR =  0.7
+   ISC =  1e-06
+   NC =  2
+   IRB =  1e+30
+   RBM =  0
+   XTF =  1.2
+   VTF =  120
+   ITF =  0.75
+   PTF =  0
+   XCJC =  1
+   VJS =  0.75
+   MJS =  0
+   XTB =  1.5
+   EG =  1.11
+   XTI =  3
+   KF =  0
+   AF =  1
+   FC =  0.5
+   TNOM =  27
)

.MODEL KT630E NPN (
+   IS =  1e-12
+   BF =  480
+   BR =  1
+   RB =  2.5
+   RE =  0.5
+   RC =  0
+   CJS =  0
+   CJE =  6.5e-11
+   CJC =  1.5e-11
+   VJE =  0.75
+   VJC =  0.75
+   TF =  7e-10
+   TR =  7e-08
+   MJE =  0.33
+   MJC =  0.33
+   VA =  70
+   ISE =  1e-09
+   IKF =  1
+   NE =  4
+   NF =  1
+   NR =  1
+   VAR =  1e+30
+   IKR =  1e+30
+   ISC =  1e-09
+   NC =  4
+   IRB =  1e+30
+   RBM =  0
+   XTF =  0
+   VTF =  1e+30
+   ITF =  0
+   PTF =  0
+   XCJC =  1
+   VJS =  0.75
+   MJS =  0
+   XTB =  0
+   EG =  1.11
+   XTI =  3
+   KF =  1e-15
+   AF =  1
+   FC =  0.5
+   TNOM =  27
)

.MODEL KT630G NPN (
+   IS =  4.427e-16
+   BF =  80
+   BR =  1
+   RB =  0
+   RE =  0
+   RC =  0
+   CJS =  0
+   CJE =  6.5e-11
+   CJC =  2.5e-11
+   VJE =  0.75
+   VJC =  0.75
+   TF =  3.129e-09
+   TR =  1e-08
+   MJE =  0.333
+   MJC =  0.333
+   VA =  120
+   ISE =  1e-07
+   IKF =  0.8
+   NE =  1.5
+   NF =  1
+   NR =  1
+   VAR =  1e+30
+   IKR =  0.7
+   ISC =  1e-06
+   NC =  2
+   IRB =  1e+30
+   RBM =  0
+   XTF =  1.2
+   VTF =  120
+   ITF =  0.75
+   PTF =  0
+   XCJC =  1
+   VJS =  0.75
+   MJS =  0
+   XTB =  1.5
+   EG =  1.11
+   XTI =  3
+   KF =  0
+   AF =  1
+   FC =  0.5
+   TNOM =  27
)

.MODEL KT630V NPN (
+   IS =  4.427e-16
+   BF =  80
+   BR =  1
+   RB =  0
+   RE =  0
+   RC =  0
+   CJS =  0
+   CJE =  6.5e-11
+   CJC =  2.5e-11
+   VJE =  0.75
+   VJC =  0.75
+   TF =  3.129e-09
+   TR =  1e-08
+   MJE =  0.333
+   MJC =  0.333
+   VA =  120
+   ISE =  1e-07
+   IKF =  0.8
+   NE =  1.5
+   NF =  1
+   NR =  1
+   VAR =  1e+30
+   IKR =  0.7
+   ISC =  1e-06
+   NC =  2
+   IRB =  1e+30
+   RBM =  0
+   XTF =  1.2
+   VTF =  120
+   ITF =  0.75
+   PTF =  0
+   XCJC =  1
+   VJS =  0.75
+   MJS =  0
+   XTB =  1.5
+   EG =  1.11
+   XTI =  3
+   KF =  0
+   AF =  1
+   FC =  0.5
+   TNOM =  27
)

.MODEL KT635B NPN (
+   IS =  4.872e-13
+   BF =  105
+   BR =  2
+   RB =  0
+   RE =  0
+   RC =  0.8
+   CJS =  0
+   CJE =  8e-11
+   CJC =  1.943e-11
+   VJE =  0.75
+   VJC =  0.75
+   TF =  2.4e-10
+   TR =  1e-09
+   MJE =  0.3333
+   MJC =  0.3333
+   VA =  65
+   ISE =  1e-06
+   IKF =  1.2
+   NE =  1.5
+   NF =  1
+   NR =  1
+   VAR =  1e+30
+   IKR =  1.2
+   ISC =  1e-06
+   NC =  2
+   IRB =  1e+30
+   RBM =  0
+   XTF =  1.3
+   VTF =  65
+   ITF =  1
+   PTF =  0
+   XCJC =  1
+   VJS =  0.75
+   MJS =  0
+   XTB =  1.5
+   EG =  1.11
+   XTI =  3
+   KF =  0
+   AF =  1
+   FC =  0.5
+   TNOM =  27
)

.MODEL KT642A-2 NPN (
+   IS =  5.6e-15
+   BF =  12
+   BR =  1
+   RB =  0
+   RE =  0
+   RC =  0
+   CJS =  0
+   CJE =  0
+   CJC =  0
+   VJE =  0.75
+   VJC =  0.75
+   TF =  0
+   TR =  0
+   MJE =  0.33
+   MJC =  0.33
+   VA =  20
+   ISE =  0
+   IKF =  1e+30
+   NE =  1.5
+   NF =  1
+   NR =  1
+   VAR =  1e+30
+   IKR =  1e+30
+   ISC =  0
+   NC =  2
+   IRB =  1e+30
+   RBM =  0
+   XTF =  0
+   VTF =  1e+30
+   ITF =  0
+   PTF =  0
+   XCJC =  1
+   VJS =  0.75
+   MJS =  0
+   XTB =  0
+   EG =  1.11
+   XTI =  3
+   KF =  0
+   AF =  1
+   FC =  0.5
+   TNOM =  27
)

.MODEL KT653B NPN (
+   IS =  4.825e-11
+   BF =  50
+   BR =  1
+   RB =  0
+   RE =  0
+   RC =  0
+   CJS =  0
+   CJE =  0
+   CJC =  0
+   VJE =  0.75
+   VJC =  0.75
+   TF =  0
+   TR =  0
+   MJE =  0.33
+   MJC =  0.33
+   VA =  120
+   ISE =  0
+   IKF =  1e+30
+   NE =  1.5
+   NF =  1
+   NR =  1
+   VAR =  1e+30
+   IKR =  1e+30
+   ISC =  0
+   NC =  2
+   IRB =  1e+30
+   RBM =  0
+   XTF =  0
+   VTF =  1e+30
+   ITF =  0
+   PTF =  0
+   XCJC =  1
+   VJS =  0.75
+   MJS =  0
+   XTB =  0
+   EG =  1.11
+   XTI =  3
+   KF =  0
+   AF =  1
+   FC =  0.5
+   TNOM =  27
)

.MODEL kt815g NPN (
+   IS =  3.37e-12
+   BF =  53.9
+   BR =  1
+   RB =  0
+   RE =  0
+   RC =  0
+   CJS =  0
+   CJE =  0
+   CJC =  0
+   VJE =  0.75
+   VJC =  0.75
+   TF =  0
+   TR =  0
+   MJE =  0.33
+   MJC =  0.33
+   VA =  100
+   ISE =  0
+   IKF =  1e+30
+   NE =  1.576
+   NF =  1
+   NR =  1
+   VAR =  1e+30
+   IKR =  1e+30
+   ISC =  0
+   NC =  2
+   IRB =  1e+30
+   RBM =  0
+   XTF =  0
+   VTF =  1e+30
+   ITF =  0
+   PTF =  0
+   XCJC =  1
+   VJS =  0.75
+   MJS =  0
+   XTB =  0
+   EG =  1.11
+   XTI =  3
+   KF =  0
+   AF =  1
+   FC =  0.5
+   TNOM =  27
)

.MODEL KT819A NPN (
+   IS =  1e-10
+   BF =  15
+   BR =  1
+   RB =  0.15
+   RE =  0.05
+   RC =  0
+   CJS =  0
+   CJE =  5e-10
+   CJC =  3.6e-10
+   VJE =  0.75
+   VJC =  0.75
+   TF =  3e-08
+   TR =  2e-06
+   MJE =  0.33
+   MJC =  0.33
+   VA =  50
+   ISE =  0.0001
+   IKF =  10
+   NE =  4
+   NF =  1
+   NR =  1
+   VAR =  1e+30
+   IKR =  1e+30
+   ISC =  0.0001
+   NC =  4
+   IRB =  1e+30
+   RBM =  0
+   XTF =  0
+   VTF =  1e+30
+   ITF =  0
+   PTF =  0
+   XCJC =  1
+   VJS =  0.75
+   MJS =  0
+   XTB =  0
+   EG =  1.11
+   XTI =  3
+   KF =  0
+   AF =  1
+   FC =  0.5
+   TNOM =  27
)

.MODEL KT819B NPN (
+   IS =  1e-10
+   BF =  20
+   BR =  1
+   RB =  0.15
+   RE =  0.05
+   RC =  0
+   CJS =  0
+   CJE =  5e-10
+   CJC =  3.6e-10
+   VJE =  0.75
+   VJC =  0.75
+   TF =  3e-08
+   TR =  2e-06
+   MJE =  0.33
+   MJC =  0.33
+   VA =  80
+   ISE =  0.0001
+   IKF =  10
+   NE =  4
+   NF =  1
+   NR =  1
+   VAR =  1e+30
+   IKR =  1e+30
+   ISC =  0.0001
+   NC =  4
+   IRB =  1e+30
+   RBM =  0
+   XTF =  0
+   VTF =  1e+30
+   ITF =  0
+   PTF =  0
+   XCJC =  1
+   VJS =  0.75
+   MJS =  0
+   XTB =  0
+   EG =  1.11
+   XTI =  3
+   KF =  0
+   AF =  1
+   FC =  0.5
+   TNOM =  27
)

.MODEL KT819V NPN (
+   IS =  1e-10
+   BF =  15
+   BR =  1
+   RB =  0.15
+   RE =  0.05
+   RC =  0
+   CJS =  0
+   CJE =  5e-10
+   CJC =  3.6e-10
+   VJE =  0.75
+   VJC =  0.75
+   TF =  3e-08
+   TR =  2e-06
+   MJE =  0.33
+   MJC =  0.33
+   VA =  100
+   ISE =  0.0001
+   IKF =  10
+   NE =  4
+   NF =  1
+   NR =  1
+   VAR =  1e+30
+   IKR =  1e+30
+   ISC =  0.0001
+   NC =  4
+   IRB =  1e+30
+   RBM =  0
+   XTF =  0
+   VTF =  1e+30
+   ITF =  0
+   PTF =  0
+   XCJC =  1
+   VJS =  0.75
+   MJS =  0
+   XTB =  0
+   EG =  1.11
+   XTI =  3
+   KF =  0
+   AF =  1
+   FC =  0.5
+   TNOM =  27
)

.MODEL KT831A NPN (
+   IS =  1.41e-13
+   BF =  25
+   BR =  1
+   RB =  0
+   RE =  0
+   RC =  0
+   CJS =  0
+   CJE =  2.1e-10
+   CJC =  1.8e-10
+   VJE =  0.75
+   VJC =  0.75
+   TF =  3.177e-08
+   TR =  1e-08
+   MJE =  0.333
+   MJC =  0.333
+   VA =  100
+   ISE =  0.0001
+   IKF =  1.5
+   NE =  1.5
+   NF =  1
+   NR =  1
+   VAR =  1e+30
+   IKR =  0
+   ISC =  0.0001
+   NC =  2
+   IRB =  1e+30
+   RBM =  0
+   XTF =  1.3
+   VTF =  100
+   ITF =  1.5
+   PTF =  0
+   XCJC =  1
+   VJS =  0.75
+   MJS =  0
+   XTB =  1.5
+   EG =  1.11
+   XTI =  3
+   KF =  0
+   AF =  1
+   FC =  0.5
+   TNOM =  27
)

.MODEL KT831B NPN (
+   IS =  1.41e-13
+   BF =  25
+   BR =  1
+   RB =  0
+   RE =  0
+   RC =  0
+   CJS =  0
+   CJE =  2.1e-10
+   CJC =  1.8e-10
+   VJE =  0.75
+   VJC =  0.75
+   TF =  3.177e-08
+   TR =  1e-08
+   MJE =  0.333
+   MJC =  0.333
+   VA =  100
+   ISE =  0.0001
+   IKF =  1.5
+   NE =  1.5
+   NF =  1
+   NR =  1
+   VAR =  1e+30
+   IKR =  0
+   ISC =  0.0001
+   NC =  2
+   IRB =  1e+30
+   RBM =  0
+   XTF =  1.3
+   VTF =  100
+   ITF =  1.5
+   PTF =  0
+   XCJC =  1
+   VJS =  0.75
+   MJS =  0
+   XTB =  1.5
+   EG =  1.11
+   XTI =  3
+   KF =  0
+   AF =  1
+   FC =  0.5
+   TNOM =  27
)

.MODEL KT831G NPN (
+   IS =  1.41e-13
+   BF =  20
+   BR =  1
+   RB =  0
+   RE =  0
+   RC =  0
+   CJS =  0
+   CJE =  2.1e-10
+   CJC =  1.8e-10
+   VJE =  0.75
+   VJC =  0.75
+   TF =  3.177e-08
+   TR =  1e-08
+   MJE =  0.333
+   MJC =  0.333
+   VA =  100
+   ISE =  0.0001
+   IKF =  1.5
+   NE =  1.5
+   NF =  1
+   NR =  1
+   VAR =  1e+30
+   IKR =  0
+   ISC =  0.0001
+   NC =  2
+   IRB =  1e+30
+   RBM =  0
+   XTF =  1.3
+   VTF =  100
+   ITF =  1.5
+   PTF =  0
+   XCJC =  1
+   VJS =  0.75
+   MJS =  0
+   XTB =  1.5
+   EG =  1.11
+   XTI =  3
+   KF =  0
+   AF =  1
+   FC =  0.5
+   TNOM =  27
)

.MODEL KT831V NPN (
+   IS =  1.41e-13
+   BF =  25
+   BR =  1
+   RB =  0
+   RE =  0
+   RC =  0
+   CJS =  0
+   CJE =  2.1e-10
+   CJC =  1.8e-10
+   VJE =  0.75
+   VJC =  0.75
+   TF =  3.177e-08
+   TR =  1e-08
+   MJE =  0.333
+   MJC =  0.333
+   VA =  100
+   ISE =  0.0001
+   IKF =  1.5
+   NE =  1.5
+   NF =  1
+   NR =  1
+   VAR =  1e+30
+   IKR =  0
+   ISC =  0.0001
+   NC =  2
+   IRB =  1e+30
+   RBM =  0
+   XTF =  1.3
+   VTF =  100
+   ITF =  1.5
+   PTF =  0
+   XCJC =  1
+   VJS =  0.75
+   MJS =  0
+   XTB =  1.5
+   EG =  1.11
+   XTI =  3
+   KF =  0
+   AF =  1
+   FC =  0.5
+   TNOM =  27
)

.MODEL KT841A NPN (
+   IS =  3.22e-09
+   BF =  30
+   BR =  2
+   RB =  0
+   RE =  0
+   RC =  0.12
+   CJS =  0
+   CJE =  5.04e-09
+   CJC =  5.344e-10
+   VJE =  0.75
+   VJC =  0.75
+   TF =  5.336e-09
+   TR =  4e-08
+   MJE =  0.333
+   MJC =  0.333
+   VA =  80
+   ISE =  0.0001
+   IKF =  2
+   NE =  1.5
+   NF =  1
+   NR =  1
+   VAR =  1e+30
+   IKR =  3
+   ISC =  5e-05
+   NC =  2
+   IRB =  1e+30
+   RBM =  0
+   XTF =  1.2
+   VTF =  120
+   ITF =  2
+   PTF =  0
+   XCJC =  1
+   VJS =  0.75
+   MJS =  0
+   XTB =  1.5
+   EG =  1.11
+   XTI =  3
+   KF =  0
+   AF =  1
+   FC =  0.5
+   TNOM =  27
)

.MODEL KT847A NPN (
+   IS =  7.34e-06
+   BF =  100
+   BR =  3
+   RB =  0
+   RE =  0
+   RC =  0.09
+   CJS =  0
+   CJE =  5.99e-09
+   CJC =  5.121e-10
+   VJE =  0.75
+   VJC =  0.75
+   TF =  1.043e-08
+   TR =  3e-08
+   MJE =  0.333
+   MJC =  0.333
+   VA =  50
+   ISE =  5e-05
+   IKF =  2
+   NE =  1.5
+   NF =  1
+   NR =  1
+   VAR =  1e+30
+   IKR =  2
+   ISC =  5e-05
+   NC =  2
+   IRB =  1e+30
+   RBM =  0
+   XTF =  1.3
+   VTF =  40
+   ITF =  2
+   PTF =  0
+   XCJC =  1
+   VJS =  0.75
+   MJS =  0
+   XTB =  1.5
+   EG =  1.11
+   XTI =  3
+   KF =  0
+   AF =  1
+   FC =  0.5
+   TNOM =  27
)

.MODEL KT866A NPN (
+   IS =  4.4e-06
+   BF =  70
+   BR =  3
+   RB =  0
+   RE =  0
+   RC =  0.15
+   CJS =  0
+   CJE =  5.99e-09
+   CJC =  7.772e-10
+   VJE =  0.75
+   VJC =  0.75
+   TF =  5.16e-09
+   TR =  3e-08
+   MJE =  0.333
+   MJC =  0.333
+   VA =  120
+   ISE =  1e-05
+   IKF =  2
+   NE =  1.5
+   NF =  1
+   NR =  1
+   VAR =  1e+30
+   IKR =  2
+   ISC =  2e-05
+   NC =  2
+   IRB =  1e+30
+   RBM =  0
+   XTF =  1.3
+   VTF =  40
+   ITF =  2
+   PTF =  0
+   XCJC =  1
+   VJS =  0.75
+   MJS =  0
+   XTB =  1.5
+   EG =  1.11
+   XTI =  3
+   KF =  0
+   AF =  1
+   FC =  0.5
+   TNOM =  27
)

.MODEL KT880A NPN (
+   IS =  4.4e-06
+   BF =  70
+   BR =  3
+   RB =  0
+   RE =  0
+   RC =  0.15
+   CJS =  0
+   CJE =  5.99e-09
+   CJC =  7.772e-10
+   VJE =  0.75
+   VJC =  0.75
+   TF =  5.16e-09
+   TR =  3e-08
+   MJE =  0.333
+   MJC =  0.333
+   VA =  120
+   ISE =  1e-05
+   IKF =  2
+   NE =  1.5
+   NF =  1
+   NR =  1
+   VAR =  1e+30
+   IKR =  2
+   ISC =  2e-05
+   NC =  2
+   IRB =  1e+30
+   RBM =  0
+   XTF =  1.3
+   VTF =  40
+   ITF =  2
+   PTF =  0
+   XCJC =  1
+   VJS =  0.75
+   MJS =  0
+   XTB =  1.5
+   EG =  1.11
+   XTI =  3
+   KF =  0
+   AF =  1
+   FC =  0.5
+   TNOM =  27
)

.MODEL KT926A NPN (
+   IS =  1.134e-20
+   BF =  25
+   BR =  3
+   RB =  0
+   RE =  0
+   RC =  0.15
+   CJS =  0
+   CJE =  5.985e-09
+   CJC =  7.772e-10
+   VJE =  0.75
+   VJC =  0.75
+   TF =  2.922e-09
+   TR =  3e-08
+   MJE =  0.333
+   MJC =  0.333
+   VA =  150
+   ISE =  1e-05
+   IKF =  3
+   NE =  1.5
+   NF =  1
+   NR =  1
+   VAR =  1e+30
+   IKR =  3
+   ISC =  2e-05
+   NC =  2
+   IRB =  1e+30
+   RBM =  0
+   XTF =  1.3
+   VTF =  120
+   ITF =  2
+   PTF =  0
+   XCJC =  1
+   VJS =  0.75
+   MJS =  0
+   XTB =  1.5
+   EG =  1.11
+   XTI =  3
+   KF =  0
+   AF =  1
+   FC =  0.5
+   TNOM =  27
)

.MODEL Q2T215A NPN (
+   IS =  6.734e-14
+   BF =  20
+   BR =  1
+   RB =  0
+   RE =  0
+   RC =  0
+   CJS =  0
+   CJE =  9.8e-12
+   CJC =  1.2e-11
+   VJE =  0.75
+   VJC =  0.75
+   TF =  1.588e-07
+   TR =  1e-08
+   MJE =  0.333
+   MJC =  0.333
+   VA =  80
+   ISE =  1e-06
+   IKF =  0.05
+   NE =  1.5
+   NF =  1
+   NR =  1
+   VAR =  1e+30
+   IKR =  0
+   ISC =  1e-06
+   NC =  2
+   IRB =  1e+30
+   RBM =  0
+   XTF =  0
+   VTF =  0
+   ITF =  0
+   PTF =  0
+   XCJC =  1
+   VJS =  0.75
+   MJS =  0
+   XTB =  1.5
+   EG =  1.11
+   XTI =  3
+   KF =  0
+   AF =  1
+   FC =  0.5
+   TNOM =  27
)

.MODEL Q2T215B NPN (
+   IS =  6.734e-14
+   BF =  60
+   BR =  1
+   RB =  0
+   RE =  0
+   RC =  0
+   CJS =  0
+   CJE =  9.8e-12
+   CJC =  1.2e-11
+   VJE =  0.75
+   VJC =  0.75
+   TF =  1.588e-07
+   TR =  1e-08
+   MJE =  0.333
+   MJC =  0.333
+   VA =  80
+   ISE =  1e-06
+   IKF =  0.05
+   NE =  1.5
+   NF =  1
+   NR =  1
+   VAR =  1e+30
+   IKR =  0
+   ISC =  1e-06
+   NC =  2
+   IRB =  1e+30
+   RBM =  0
+   XTF =  0
+   VTF =  0
+   ITF =  0
+   PTF =  0
+   XCJC =  1
+   VJS =  0.75
+   MJS =  0
+   XTB =  1.5
+   EG =  1.11
+   XTI =  3
+   KF =  0
+   AF =  1
+   FC =  0.5
+   TNOM =  27
)

.MODEL Q2T215G NPN (
+   IS =  6.734e-14
+   BF =  85
+   BR =  1
+   RB =  0
+   RE =  0
+   RC =  0
+   CJS =  0
+   CJE =  9.8e-12
+   CJC =  1.2e-11
+   VJE =  0.75
+   VJC =  0.75
+   TF =  1.588e-07
+   TR =  1e-08
+   MJE =  0.333
+   MJC =  0.333
+   VA =  80
+   ISE =  1e-06
+   IKF =  0.05
+   NE =  1.5
+   NF =  1
+   NR =  1
+   VAR =  1e+30
+   IKR =  0
+   ISC =  1e-06
+   NC =  2
+   IRB =  1e+30
+   RBM =  0
+   XTF =  0
+   VTF =  1e+30
+   ITF =  0
+   PTF =  0
+   XCJC =  1
+   VJS =  0.75
+   MJS =  0
+   XTB =  1.5
+   EG =  1.11
+   XTI =  3
+   KF =  0
+   AF =  1
+   FC =  0.5
+   TNOM =  27
)

.MODEL Q2T215V NPN (
+   IS =  6.734e-14
+   BF =  90
+   BR =  1
+   RB =  0
+   RE =  0
+   RC =  0
+   CJS =  0
+   CJE =  9.8e-12
+   CJC =  1.2e-11
+   VJE =  0.75
+   VJC =  0.75
+   TF =  1.588e-07
+   TR =  1e-08
+   MJE =  0.333
+   MJC =  0.333
+   VA =  80
+   ISE =  1e-06
+   IKF =  0.05
+   NE =  1.5
+   NF =  1
+   NR =  1
+   VAR =  1e+30
+   IKR =  0
+   ISC =  1e-06
+   NC =  2
+   IRB =  1e+30
+   RBM =  0
+   XTF =  0
+   VTF =  1e+30
+   ITF =  0
+   PTF =  0
+   XCJC =  1
+   VJS =  0.75
+   MJS =  0
+   XTB =  1.5
+   EG =  1.11
+   XTI =  3
+   KF =  0
+   AF =  1
+   FC =  0.5
+   TNOM =  27
)

.MODEL Q2T3102A NPN (
+   IS =  6.851e-13
+   BF =  213
+   BR =  1.168e+10
+   RB =  0
+   RE =  0
+   RC =  7
+   CJS =  0
+   CJE =  9.284e-12
+   CJC =  1.207e-11
+   VJE =  0.75
+   VJC =  0.7
+   TF =  2.526e-10
+   TR =  8e-11
+   MJE =  0.333
+   MJC =  0.333
+   VA =  80
+   ISE =  5.634e-10
+   IKF =  0.43
+   NE =  2.55
+   NF =  1
+   NR =  1
+   VAR =  1e+30
+   IKR =  0.08
+   ISC =  1e-10
+   NC =  2
+   IRB =  1e+30
+   RBM =  0
+   XTF =  1.2
+   VTF =  50
+   ITF =  0.008
+   PTF =  0
+   XCJC =  1
+   VJS =  0.75
+   MJS =  0
+   XTB =  1.5
+   EG =  1.11