
.MODEL T122 NPN (
+   IS =  4.7055e-15
+   BF =  101.3
+   BR =  20.436
+   RB =  11.511
+   RE =  0.95265
+   RC =  10
+   CJS =  0
+   CJE =  2.1553e-14
+   CJC =  8.1666e-13
+   VJE =  0.81319
+   VJC =  0.79678
+   TF =  3.7049e-11
+   TR =  1.2601e-09
+   MJE =  0.52671
+   MJC =  0.3138
+   VA =  45
+   ISE =  1.536e-14
+   IKF =  0.054272
+   NE =  1.3727
+   NF =  0.81505
+   NR =  1.4775
+   VAR =  4.6607
+   IKR =  0.015746
+   ISC =  1.2944e-15
+   NC =  0.86254
+   IRB =  4.2443e-05
+   RBM =  7.5995
+   XTF =  0.24396
+   VTF =  0.29226
+   ITF =  0.0031948
+   PTF =  0
+   XCJC =  0.24494
+   VJS =  0.75
+   MJS =  0
+   XTB =  0
+   EG =  1.11
+   XTI =  3
+   KF =  0
+   AF =  1
+   FC =  0.57696
+   TNOM =  27
)

.MODEL T236 NPN (
+   IS =  9.6952e-15
+   BF =  86.665
+   BR =  61.012
+   RB =  0
+   RE =  1.4768
+   RC =  0.075508
+   CJS =  0
+   CJE =  3.2968e-14
+   CJC =  2.9998e-12
+   VJE =  0.87721
+   VJC =  1.0086
+   TF =  4.2719e-11
+   TR =  1.3578e-10
+   MJE =  0.51738
+   MJC =  0.39102
+   VA =  33.548
+   ISE =  3.7545e-15
+   IKF =  1.9049
+   NE =  0.74837
+   NF =  0.46449
+   NR =  1.1471
+   VAR =  45.693
+   IKR =  0.019155
+   ISC =  4.5491e-18
+   NC =  1.2809
+   IRB =  0.00020816
+   RBM =  1.0193
+   XTF =  0.26853
+   VTF =  0.11783
+   ITF =  0.0047293
+   PTF =  0
+   XCJC =  0.020778
+   VJS =  0.75
+   MJS =  0
+   XTB =  0
+   EG =  1.11
+   XTI =  3
+   KF =  0
+   AF =  1
+   FC =  0.56371
+   TNOM =  27
)

.MODEL T239 NPN (
+   IS =  1.5813e-15
+   BF =  113.32
+   BR =  86.718
+   RB =  0
+   RE =  0.22081
+   RC =  0.01636
+   CJS =  0
+   CJE =  3.3904e-14
+   CJC =  2.9774e-12
+   VJE =  0.71518
+   VJC =  1.1381
+   TF =  2.0691e-11
+   TR =  1.0033e-09
+   MJE =  0.36824
+   MJC =  0.31461
+   VA =  12.331
+   ISE =  4.637e-14
+   IKF =  1.4907
+   NE =  1.4254
+   NF =  1.0653
+   NR =  1.8047
+   VAR =  31.901
+   IKR =  0.033605
+   ISC =  8.0864e-18
+   NC =  1.8821
+   IRB =  0.00083992
+   RBM =  1.0078
+   XTF =  0.31338
+   VTF =  0.10174
+   ITF =  0.0045579
+   PTF =  0
+   XCJC =  0.02899
+   VJS =  0.75
+   MJS =  0
+   XTB =  0
+   EG =  1.11
+   XTI =  3
+   KF =  0
+   AF =  1
+   FC =  0.99886
+   TNOM =  27
)

.MODEL T251 NPN (
+   IS =  1.703e-14
+   BF =  110
+   BR =  25.974
+   RB =  5.7058
+   RE =  1.1731
+   RC =  0.3715
+   CJS =  0
+   CJE =  3.3977e-14
+   CJC =  6.9381e-13
+   VJE =  0.4318
+   VJC =  0.26339
+   TF =  2.1842e-11
+   TR =  1.2554e-09
+   MJE =  1.7707
+   MJC =  0.24448
+   VA =  35
+   ISE =  5.8728e-15
+   IKF =  0.22241
+   NE =  1.0668
+   NF =  0.80846
+   NR =  0.36321
+   VAR =  2.3785
+   IKR =  0.011566
+   ISC =  1.6977e-13
+   NC =  1.2237
+   IRB =  0.00011894
+   RBM =  1.5489
+   XTF =  0.26781
+   VTF =  0.48042
+   ITF =  0.014701
+   PTF =  0
+   XCJC =  0.1254
+   VJS =  0.75
+   MJS =  0
+   XTB =  0
+   EG =  1.11
+   XTI =  3
+   KF =  0
+   AF =  1
+   FC =  0.74346
+   TNOM =  27
)

.MODEL T259 NPN (
+   IS =  8.6752e-15
+   BF =  137.63
+   BR =  59
+   RB =  7.2326
+   RE =  1.0075
+   RC =  0.13193
+   CJS =  0
+   CJE =  3.1538e-15
+   CJC =  1.0395e-12
+   VJE =  0.70393
+   VJC =  0.72744
+   TF =  3.3388e-11
+   TR =  1.1061e-09
+   MJE =  0.5071
+   MJC =  0.34565
+   VA =  20.011
+   ISE =  2.6193e-12
+   IKF =  0.33395
+   NE =  1.5466
+   NF =  0.93633
+   NR =  0.88761
+   VAR =  26.834
+   IKR =  0.015129
+   ISC =  7.0823e-16
+   NC =  1.95
+   IRB =  4.3806e-05
+   RBM =  3.4649
+   XTF =  0.28319
+   VTF =  0.17765
+   ITF =  0.0025184
+   PTF =  0
+   XCJC =  0.21422
+   VJS =  0.75
+   MJS =  0
+   XTB =  0
+   EG =  1.11
+   XTI =  3
+   KF =  0
+   AF =  1
+   FC =  0.75935
+   TNOM =  27
)

.MODEL T296 NPN (
+   IS =  1.8998e-15
+   BF =  132.75
+   BR =  11.407
+   RB =  1.2652
+   RE =  1.1351
+   RC =  0.27485
+   CJS =  0
+   CJE =  5.0933e-15
+   CJC =  2.3278e-12
+   VJE =  0.85909
+   VJC =  0.81533
+   TF =  3.5786e-11
+   TR =  1.2466e-09
+   MJE =  0.69062
+   MJC =  0.46849
+   VA =  15
+   ISE =  7.1424e-14
+   IKF =  0.44125
+   NE =  1.3235
+   NF =  0.89608
+   NR =  0.91008
+   VAR =  4.1613
+   IKR =  0.010016
+   ISC =  2.0992e-15
+   NC =  1.4602
+   IRB =  2.8135e-05
+   RBM =  1.0893
+   XTF =  0.44444
+   VTF =  0.10681
+   ITF =  0.062059
+   PTF =  0
+   XCJC =  0.14496
+   VJS =  0.75
+   MJS =  0
+   XTB =  0
+   EG =  1.11
+   XTI =  3
+   KF =  0
+   AF =  1
+   FC =  0.92887
+   TNOM =  27
)

.MODEL T301 NPN (
+   IS =  1.8519e-16
+   BF =  94.687
+   BR =  20.325
+   RB =  1.4255
+   RE =  3.7045
+   RC =  0.56
+   CJS =  0
+   CJE =  3.2473e-15
+   CJC =  1.8369e-13
+   VJE =  1.1812
+   VJC =  1.1812
+   TF =  1.4866e-11
+   TR =  2.2648e-09
+   MJE =  0.41827
+   MJC =  0.30423
+   VA =  26.867
+   ISE =  1.3093e-13
+   IKF =  0.025252
+   NE =  1.9818
+   NF =  1.0236
+   NR =  0.93013
+   VAR =  3.2134
+   IKR =  0.012138
+   ISC =  6.1852e-15
+   NC =  1.6195
+   IRB =  1e-05
+   RBM =  60
+   XTF =  0.3062
+   VTF =  0.22023
+   ITF =  0.0010202
+   PTF =  0
+   XCJC =  0.08334
+   VJS =  0.75
+   MJS =  0
+   XTB =  0
+   EG =  1.11
+   XTI =  3
+   KF =  0
+   AF =  1
+   FC =  0.87906
+   TNOM =  27
)

.MODEL T302 NPN (
+   IS =  6.472e-15
+   BF =  89.888
+   BR =  20.238
+   RB =  15
+   RE =  2.4518
+   RC =  6.989
+   CJS =  0
+   CJE =  3.6218e-14
+   CJC =  2.5299e-13
+   VJE =  0.70035
+   VJC =  1.1943
+   TF =  1.1744e-11
+   TR =  2.3693e-09
+   MJE =  0.69773
+   MJC =  0.30017
+   VA =  25.609
+   ISE =  1.5596e-14
+   IKF =  0.073457
+   NE =  1.6163
+   NF =  1.0801
+   NR =  0.83403
+   VAR =  5.6909
+   IKR =  0.012696
+   ISC =  1.409e-15
+   NC =  1.0651
+   IRB =  3.1958e-05
+   RBM =  14.999
+   XTF =  0.21585
+   VTF =  0.2035
+   ITF =  0.0062179
+   PTF =  0
+   XCJC =  0.19188
+   VJS =  0.75
+   MJS =  0
+   XTB =  0
+   EG =  1.11
+   XTI =  3
+   KF =  0
+   AF =  1
+   FC =  0.96275
+   TNOM =  27
)

.MODEL T341 NPN (
+   IS =  4.8499e-15
+   BF =  84.113
+   BR =  10.004
+   RB =  2.8263
+   RE =  2.1858
+   RC =  1.8159
+   CJS =  0
+   CJE =  8.8619e-15
+   CJC =  4.9025e-13
+   VJE =  1.0378
+   VJC =  1.0132
+   TF =  2.272e-11
+   TR =  1.7541e-09
+   MJE =  0.40796
+   MJC =  0.31068
+   VA =  21.742
+   ISE =  8.4254e-15
+   IKF =  0.14414
+   NE =  0.91624
+   NF =  0.56639
+   NR =  0.54818
+   VAR =  2.2595
+   IKR =  0.039478
+   ISC =  5.9438e-15
+   NC =  0.5641
+   IRB =  7.1955e-05
+   RBM =  3.4217
+   XTF =  0.43147
+   VTF =  0.34608
+   ITF =  0.0065523
+   PTF =  0
+   XCJC =  0.19281
+   VJS =  0.75
+   MJS =  0
+   XTB =  0
+   EG =  1.11
+   XTI =  3
+   KF =  0
+   AF =  1
+   FC =  0.64175
+   TNOM =  27
)

.MODEL T349 NPN (
+   IS =  1.0519e-18
+   BF =  96.461
+   BR =  16.504
+   RB =  9.9037
+   RE =  2.1372
+   RC =  2.2171
+   CJS =  0
+   CJE =  1.8168e-15
+   CJC =  3.1969e-13
+   VJE =  0.73155
+   VJC =  1.1633
+   TF =  1.7028e-11
+   TR =  2.7449e-09
+   MJE =  0.43619
+   MJC =  0.30013
+   VA =  22.403
+   ISE =  1.2603e-14
+   IKF =  0.12146
+   NE =  1.7631
+   NF =  0.90617
+   NR =  0.87757
+   VAR =  5.1127
+   IKR =  0.24951
+   ISC =  1.1195e-17
+   NC =  1.6528
+   IRB =  0.00069278
+   RBM =  6.6315
+   XTF =  0.33814
+   VTF =  0.12571
+   ITF =  0.0010549
+   PTF =  0
+   XCJC =  0.082903
+   VJS =  0.75
+   MJS =  0
+   XTB =  0
+   EG =  1.11
+   XTI =  3
+   KF =  0
+   AF =  1
+   FC =  0.99768
+   TNOM =  27
)

.MODEL T351 NPN (
+   IS =  1.0345e-15
+   BF =  115.98
+   BR =  10.016
+   RB =  1.0112
+   RE =  1.3435
+   RC =  0.20486
+   CJS =  0
+   CJE =  2.3077e-14
+   CJC =  4.6011e-13
+   VJE =  1.0792
+   VJC =  1.1967
+   TF =  2.2746e-11
+   TR =  1.0553e-09
+   MJE =  0.45354
+   MJC =  0.3
+   VA =  14.772
+   ISE =  1.6818e-14
+   IKF =  0.14562
+   NE =  1.2149
+   NF =  0.80799
+   NR =  0.99543
+   VAR =  3.4276
+   IKR =  0.013483
+   ISC =  1.3559e-15
+   NC =  0.85331
+   IRB =  0.00043801
+   RBM =  2.5426
+   XTF =  0.36823
+   VTF =  0.50905
+   ITF =  0.0018773
+   PTF =  0
+   XCJC =  0.053823
+   VJS =  0.75
+   MJS =  0
+   XTB =  0
+   EG =  1.11
+   XTI =  3
+   KF =  0
+   AF =  1
+   FC =  0.54852
+   TNOM =  27
)

.MODEL T359 NPN (
+   IS =  2.738e-16
+   BF =  125
+   BR =  14.267
+   RB =  1
+   RE =  0.76534
+   RC =  0.11938
+   CJS =  0
+   CJE =  1.1824e-15
+   CJC =  9.3503e-13
+   VJE =  0.70276
+   VJC =  1.1828
+   TF =  1.8828e-11
+   TR =  1.0037e-09
+   MJE =  0.48654
+   MJC =  0.30002
+   VA =  24
+   ISE =  1.0627e-14
+   IKF =  0.26949
+   NE =  1.935
+   NF =  0.95341
+   NR =  1.4289
+   VAR =  3.8742
+   IKR =  0.037925
+   ISC =  3.7409e-17
+   NC =  0.94371
+   IRB =  0.00091763
+   RBM =  1.8368
+   XTF =  0.69477
+   VTF =  0.8
+   ITF =  0.00096893
+   PTF =  0
+   XCJC =  0.053563
+   VJS =  0.75
+   MJS =  0
+   XTB =  0
+   EG =  1.11
+   XTI =  3
+   KF =  0
+   AF =  1
+   FC =  0.72063
+   TNOM =  27
)

.MODEL T395 NPN (
+   IS =  1.7264e-15
+   BF =  125
+   BR =  10.584
+   RB =  1.2907
+   RE =  0.75103
+   RC =  0.27137
+   CJS =  0
+   CJE =  1.3325e-14
+   CJC =  1.667e-12
+   VJE =  0.7308
+   VJC =  0.73057
+   TF =  2.3994e-11
+   TR =  2.2413e-09
+   MJE =  0.33018
+   MJC =  0.3289
+   VA =  20
+   ISE =  1.1922e-13
+   IKF =  0.4294
+   NE =  1.1766
+   NF =  0.80012
+   NR =  0.94288
+   VAR =  3.8128
+   IKR =  0.019511
+   ISC =  4.8666e-15
+   NC =  0.88299
+   IRB =  8.4011e-05
+   RBM =  1
+   XTF =  0.44322
+   VTF =  0.1
+   ITF =  0.0019775
+   PTF =  0
+   XCJC =  0.29998
+   VJS =  0.75
+   MJS =  0
+   XTB =  0
+   EG =  1.11
+   XTI =  3
+   KF =  0
+   AF =  1
+   FC =  0.50922
+   TNOM =  27
)

.MODEL T501 NPN (
+   IS =  2.1024e-16
+   BF =  83.23
+   BR =  10.526
+   RB =  15
+   RE =  1.9289
+   RC =  0.12691
+   CJS =  0
+   CJE =  3.7265e-15
+   CJC =  9.6941e-14
+   VJE =  0.70367
+   VJC =  0.99532
+   TF =  4.5899e-12
+   TR =  1.4935e-09
+   MJE =  0.37747
+   MJC =  0.48652
+   VA =  39.251
+   ISE =  1.5761e-14
+   IKF =  0.16493
+   NE =  1.7763
+   NF =  1.0405
+   NR =  0.96647
+   VAR =  34.368
+   IKR =  0.25052
+   ISC =  3.7223e-17
+   NC =  1.3152
+   IRB =  0.00021215
+   RBM =  1.3491
+   XTF =  0.3641
+   VTF =  0.19762
+   ITF =  0.0013364
+   PTF =  0
+   XCJC =  0.08161
+   VJS =  0.75
+   MJS =  0
+   XTB =  0
+   EG =  1.11
+   XTI =  3
+   KF =  0
+   AF =  1
+   FC =  0.99469
+   TNOM =  27
)

.MODEL T502 NPN (
+   IS =  2.0045e-16
+   BF =  72.534
+   BR =  7.8287
+   RB =  3.4849
+   RE =  0.31111
+   RC =  0.10105
+   CJS =  0
+   CJE =  1.8063e-15
+   CJC =  2.3453e-13
+   VJE =  0.8051
+   VJC =  0.81969
+   TF =  6.7661e-12
+   TR =  2.3249e-09
+   MJE =  0.46576
+   MJC =  0.30232
+   VA =  28.383
+   ISE =  1.9049e-14
+   IKF =  0.48731
+   NE =  2.0518
+   NF =  1.2432
+   NR =  1.3325
+   VAR =  19.705
+   IKR =  0.69141
+   ISC =  1.9237e-17
+   NC =  1.1724
+   IRB =  0.00072983
+   RBM =  8.5757
+   XTF =  0.42199
+   VTF =  0.23794
+   ITF =  0.001
+   PTF =  0
+   XCJC =  0.3
+   VJS =  0.75
+   MJS =  0
+   XTB =  0
+   EG =  1.11
+   XTI =  3
+   KF =  0
+   AF =  1
+   FC =  0.73234
+   TNOM =  27
)

.MODEL T503 NPN (
+   IS =  1.3125e-16
+   BF =  76.123
+   BR =  21.254
+   RB =  2.1659
+   RE =  0.45346
+   RC =  0.50084
+   CJS =  0
+   CJE =  3.2276e-15
+   CJC =  1.0495e-12
+   VJE =  0.95292
+   VJC =  1.1487
+   TF =  7.5068e-12
+   TR =  2.6912e-09
+   MJE =  0.48672
+   MJC =  0.50644
+   VA =  24.165
+   ISE =  2.8341e-14
+   IKF =  0.58905
+   NE =  1.5563
+   NF =  0.79652
+   NR =  1.2966
+   VAR =  13.461
+   IKR =  0.25878
+   ISC =  1.2292e-17
+   NC =  0.70543
+   IRB =  1.3181e-05
+   RBM =  5.403
+   XTF =  0.69972
+   VTF =  0.66148
+   ITF =  1.7655e-05
+   PTF =  0
+   XCJC =  0.28285
+   VJS =  0.75
+   MJS =  0
+   XTB =  0
+   EG =  1.11
+   XTI =  3
+   KF =  0
+   AF =  1
+   FC =  0.91274
+   TNOM =  27
)

.MODEL T504 NPN (
+   IS =  4.5104e-16
+   BF =  114.96
+   BR =  21.04
+   RB =  1.0754
+   RE =  0.32476
+   RC =  0.10737
+   CJS =  0
+   CJE =  1.227e-15
+   CJC =  6.1521e-12
+   VJE =  0.93266
+   VJC =  0.9832
+   TF =  3.9147e-12
+   TR =  1.115e-09
+   MJE =  0.36885
+   MJC =  0.34153
+   VA =  24.664
+   ISE =  1.591e-12
+   IKF =  0.76939
+   NE =  1.9962
+   NF =  1.1472
+   NR =  1.3531
+   VAR =  16.035
+   IKR =  0.090033
+   ISC =  3.7479e-15
+   NC =  1.339
+   IRB =  0.00017683
+   RBM =  2.1262
+   XTF =  0.61664
+   VTF =  0.27348
+   ITF =  0.0032793
+   PTF =  0
+   XCJC =  0.3
+   VJS =  0.75
+   MJS =  0
+   XTB =  0
+   EG =  1.11
+   XTI =  3
+   KF =  0
+   AF =  1
+   FC =  0.75835
+   TNOM =  27
)

.MODEL T89 NPN (
+   IS =  1.213e-16
+   BF =  94.733
+   BR =  10.729
+   RB =  14.998
+   RE =  0.29088
+   RC =  0.13793
+   CJS =  0
+   CJE =  1.0416e-14
+   CJC =  9.4647e-13
+   VJE =  0.70618
+   VJC =  0.84079
+   TF =  2.6796e-11
+   TR =  1.2744e-09
+   MJE =  0.34686
+   MJC =  0.4085
+   VA =  30
+   ISE =  1.2955e-13
+   IKF =  0.46227
+   NE =  1.9052
+   NF =  1.0947
+   NR =  0.8983
+   VAR =  14.599
+   IKR =  0.01
+   ISC =  7.5557e-16
+   NC =  1.371
+   IRB =  1.652e-05
+   RBM =  7.8145
+   XTF =  0.3817
+   VTF =  0.32861
+   ITF =  0.0044601
+   PTF =  0
+   XCJC =  0.13464
+   VJS =  0.75
+   MJS =  0
+   XTB =  0
+   EG =  1.11
+   XTI =  3
+   KF =  0
+   AF =  1
+   FC =  0.99545
+   TNOM =  27
)
