
.MODEL BC107BP NPN (
+   IS =  1.8e-14
+   BF =  400
+   BR =  35.5
+   RB =  0.56
+   RE =  0.6
+   RC =  0.25
+   CJS =  0
+   CJE =  1.3e-11
+   CJC =  4e-12
+   VJE =  0.75
+   VJC =  0.54
+   TF =  6.4e-10
+   TR =  5.072e-08
+   MJE =  0.33
+   MJC =  0.33
+   VA =  80
+   ISE =  5e-14
+   IKF =  0.14
+   NE =  1.46
+   NF =  0.9955
+   NR =  1.005
+   VAR =  12.5
+   IKR =  0.03
+   ISC =  1.72e-13
+   NC =  1.27
+   IRB =  1e+30
+   RBM =  0
+   XTF =  0
+   VTF =  1e+30
+   ITF =  0
+   PTF =  0
+   XCJC =  1
+   VJS =  0.75
+   MJS =  0
+   XTB =  0
+   EG =  1.11
+   XTI =  3
+   KF =  0
+   AF =  1
+   FC =  0.5
+   TNOM =  27
)

.MODEL BC108BP NPN (
+   IS =  1.8e-14
+   BF =  400
+   BR =  35.5
+   RB =  0.56
+   RE =  0.6
+   RC =  0.25
+   CJS =  0
+   CJE =  1.3e-11
+   CJC =  4e-12
+   VJE =  0.75
+   VJC =  0.54
+   TF =  6.4e-10
+   TR =  5.072e-08
+   MJE =  0.33
+   MJC =  0.33
+   VA =  80
+   ISE =  5e-14
+   IKF =  0.14
+   NE =  1.46
+   NF =  0.9955
+   NR =  1.005
+   VAR =  12.5
+   IKR =  0.03
+   ISC =  1.72e-13
+   NC =  1.27
+   IRB =  1e+30
+   RBM =  0
+   XTF =  0
+   VTF =  1e+30
+   ITF =  0
+   PTF =  0
+   XCJC =  1
+   VJS =  0.75
+   MJS =  0
+   XTB =  0
+   EG =  1.11
+   XTI =  3
+   KF =  0
+   AF =  1
+   FC =  0.5
+   TNOM =  27
)

.MODEL BC109BP NPN (
+   IS =  1.8e-14
+   BF =  400
+   BR =  35.5
+   RB =  0.56
+   RE =  0.6
+   RC =  0.25
+   CJS =  0
+   CJE =  1.3e-11
+   CJC =  4e-12
+   VJE =  0.75
+   VJC =  0.54
+   TF =  6.4e-10
+   TR =  5.072e-08
+   MJE =  0.33
+   MJC =  0.33
+   VA =  80
+   ISE =  5e-14
+   IKF =  0.14
+   NE =  1.46
+   NF =  0.9955
+   NR =  1.005
+   VAR =  12.5
+   IKR =  0.03
+   ISC =  1.72e-13
+   NC =  1.27
+   IRB =  1e+30
+   RBM =  0
+   XTF =  0
+   VTF =  1e+30
+   ITF =  0
+   PTF =  0
+   XCJC =  1
+   VJS =  0.75
+   MJS =  0
+   XTB =  0
+   EG =  1.11
+   XTI =  3
+   KF =  0
+   AF =  1
+   FC =  0.5
+   TNOM =  27
)

.MODEL BC182BP NPN (
+   IS =  1.8e-14
+   BF =  400
+   BR =  35.5
+   RB =  0.56
+   RE =  0.6
+   RC =  0.25
+   CJS =  0
+   CJE =  1.3e-11
+   CJC =  4e-12
+   VJE =  0.75
+   VJC =  0.54
+   TF =  6.4e-10
+   TR =  5.072e-08
+   MJE =  0.33
+   MJC =  0.33
+   VA =  80
+   ISE =  5e-14
+   IKF =  0.14
+   NE =  1.46
+   NF =  0.9955
+   NR =  1.005
+   VAR =  12.5
+   IKR =  0.03
+   ISC =  1.72e-13
+   NC =  1.27
+   IRB =  1e+30
+   RBM =  0
+   XTF =  0
+   VTF =  1e+30
+   ITF =  0
+   PTF =  0
+   XCJC =  1
+   VJS =  0.75
+   MJS =  0
+   XTB =  0
+   EG =  1.11
+   XTI =  3
+   KF =  0
+   AF =  1
+   FC =  0.5
+   TNOM =  27
)

.MODEL BC183BP NPN (
+   IS =  1.8e-14
+   BF =  400
+   BR =  35.5
+   RB =  0.56
+   RE =  0.6
+   RC =  0.25
+   CJS =  0
+   CJE =  1.3e-11
+   CJC =  4e-12
+   VJE =  0.75
+   VJC =  0.54
+   TF =  6.4e-10
+   TR =  5.072e-08
+   MJE =  0.33
+   MJC =  0.33
+   VA =  80
+   ISE =  5e-14
+   IKF =  0.14
+   NE =  1.46
+   NF =  0.9955
+   NR =  1.005
+   VAR =  12.5
+   IKR =  0.03
+   ISC =  1.72e-13
+   NC =  1.27
+   IRB =  1e+30
+   RBM =  0
+   XTF =  0
+   VTF =  1e+30
+   ITF =  0
+   PTF =  0
+   XCJC =  1
+   VJS =  0.75
+   MJS =  0
+   XTB =  0
+   EG =  1.11
+   XTI =  3
+   KF =  0
+   AF =  1
+   FC =  0.5
+   TNOM =  27
)

.MODEL BC184BP NPN (
+   IS =  1.8e-14
+   BF =  400
+   BR =  35.5
+   RB =  0.56
+   RE =  0.6
+   RC =  0.25
+   CJS =  0
+   CJE =  1.3e-11
+   CJC =  4e-12
+   VJE =  0.75
+   VJC =  0.54
+   TF =  6.4e-10
+   TR =  5.072e-08
+   MJE =  0.33
+   MJC =  0.33
+   VA =  80
+   ISE =  5e-14
+   IKF =  0.14
+   NE =  1.46
+   NF =  0.9955
+   NR =  1.005
+   VAR =  12.5
+   IKR =  0.03
+   ISC =  1.72e-13
+   NC =  1.27
+   IRB =  1e+30
+   RBM =  0
+   XTF =  0
+   VTF =  1e+30
+   ITF =  0
+   PTF =  0
+   XCJC =  1
+   VJS =  0.75
+   MJS =  0
+   XTB =  0
+   EG =  1.11
+   XTI =  3
+   KF =  0
+   AF =  1
+   FC =  0.5
+   TNOM =  27
)

.MODEL BC237BP NPN (
+   IS =  1.8e-14
+   BF =  400
+   BR =  35.5
+   RB =  0.56
+   RE =  0.6
+   RC =  0.25
+   CJS =  0
+   CJE =  1.3e-11
+   CJC =  4e-12
+   VJE =  0.75
+   VJC =  0.54
+   TF =  6.4e-10
+   TR =  5.072e-08
+   MJE =  0.33
+   MJC =  0.33
+   VA =  80
+   ISE =  5e-14
+   IKF =  0.14
+   NE =  1.46
+   NF =  0.9955
+   NR =  1.005
+   VAR =  12.5
+   IKR =  0.03
+   ISC =  1.72e-13
+   NC =  1.27
+   IRB =  1e+30
+   RBM =  0
+   XTF =  0
+   VTF =  1e+30
+   ITF =  0
+   PTF =  0
+   XCJC =  1
+   VJS =  0.75
+   MJS =  0
+   XTB =  0
+   EG =  1.11
+   XTI =  3
+   KF =  0
+   AF =  1
+   FC =  0.5
+   TNOM =  27
)

.MODEL BC238BP NPN (
+   IS =  1.8e-14
+   BF =  400
+   BR =  35.5
+   RB =  0.56
+   RE =  0.6
+   RC =  0.25
+   CJS =  0
+   CJE =  1.3e-11
+   CJC =  4e-12
+   VJE =  0.75
+   VJC =  0.54
+   TF =  6.4e-10
+   TR =  5.072e-08
+   MJE =  0.33
+   MJC =  0.33
+   VA =  80
+   ISE =  5e-14
+   IKF =  0.14
+   NE =  1.46
+   NF =  0.9955
+   NR =  1.005
+   VAR =  12.5
+   IKR =  0.03
+   ISC =  1.72e-13
+   NC =  1.27
+   IRB =  1e+30
+   RBM =  0
+   XTF =  0
+   VTF =  1e+30
+   ITF =  0
+   PTF =  0
+   XCJC =  1
+   VJS =  0.75
+   MJS =  0
+   XTB =  0
+   EG =  1.11
+   XTI =  3
+   KF =  0
+   AF =  1
+   FC =  0.5
+   TNOM =  27
)

.MODEL BC239BP NPN (
+   IS =  1.8e-14
+   BF =  400
+   BR =  35.5
+   RB =  0.56
+   RE =  0.6
+   RC =  0.25
+   CJS =  0
+   CJE =  1.3e-11
+   CJC =  4e-12
+   VJE =  0.75
+   VJC =  0.54
+   TF =  6.4e-10
+   TR =  5.072e-08
+   MJE =  0.33
+   MJC =  0.33
+   VA =  80
+   ISE =  5e-14
+   IKF =  0.14
+   NE =  1.46
+   NF =  0.9955
+   NR =  1.005
+   VAR =  12.5
+   IKR =  0.03
+   ISC =  1.72e-13
+   NC =  1.27
+   IRB =  1e+30
+   RBM =  0
+   XTF =  0
+   VTF =  1e+30
+   ITF =  0
+   PTF =  0
+   XCJC =  1
+   VJS =  0.75
+   MJS =  0
+   XTB =  0
+   EG =  1.11
+   XTI =  3
+   KF =  0
+   AF =  1
+   FC =  0.5
+   TNOM =  27
)

.MODEL BC337AP NPN (
+   IS =  3.94144e-14
+   BF =  175
+   BR =  20.5
+   RB =  1.1
+   RE =  0.1259
+   RC =  0.0539
+   CJS =  0
+   CJE =  6.3e-11
+   CJC =  1.58e-11
+   VJE =  0.75
+   VJC =  0.505
+   TF =  7.5e-10
+   TR =  8.5e-08
+   MJE =  0.33
+   MJC =  0.39
+   VA =  109.45
+   ISE =  7.4025e-15
+   IKF =  0.8
+   NE =  1.3
+   NF =  1
+   NR =  0.974
+   VAR =  14.25
+   IKR =  0.1
+   ISC =  3.157e-13
+   NC =  1.2
+   IRB =  1e+30
+   RBM =  0
+   XTF =  0
+   VTF =  1e+30
+   ITF =  0
+   PTF =  0
+   XCJC =  1
+   VJS =  0.75
+   MJS =  0
+   XTB =  0
+   EG =  1.11
+   XTI =  3
+   KF =  0
+   AF =  1
+   FC =  0.5
+   TNOM =  27
)

.MODEL BC338AP NPN (
+   IS =  3.94144e-14
+   BF =  175
+   BR =  20.5
+   RB =  1.1
+   RE =  0.1259
+   RC =  0.0539
+   CJS =  0
+   CJE =  6.3e-11
+   CJC =  1.58e-11
+   VJE =  0.75
+   VJC =  0.505
+   TF =  7.5e-10
+   TR =  8.5e-08
+   MJE =  0.33
+   MJC =  0.39
+   VA =  109.45
+   ISE =  7.4025e-15
+   IKF =  0.8
+   NE =  1.3
+   NF =  1
+   NR =  0.974
+   VAR =  14.25
+   IKR =  0.1
+   ISC =  3.157e-13
+   NC =  1.2
+   IRB =  1e+30
+   RBM =  0
+   XTF =  0
+   VTF =  1e+30
+   ITF =  0
+   PTF =  0
+   XCJC =  1
+   VJS =  0.75
+   MJS =  0
+   XTB =  0
+   EG =  1.11
+   XTI =  3
+   KF =  0
+   AF =  1
+   FC =  0.5
+   TNOM =  27
)

.MODEL BC413BP NPN (
+   IS =  1.8e-14
+   BF =  400
+   BR =  35.5
+   RB =  0.56
+   RE =  0.6
+   RC =  0.25
+   CJS =  0
+   CJE =  1.3e-11
+   CJC =  4e-12
+   VJE =  0.75
+   VJC =  0.54
+   TF =  6.4e-10
+   TR =  5.072e-08
+   MJE =  0.33
+   MJC =  0.33
+   VA =  80
+   ISE =  5e-14
+   IKF =  0.14
+   NE =  1.46
+   NF =  0.9955
+   NR =  1.005
+   VAR =  12.5
+   IKR =  0.03
+   ISC =  1.72e-13
+   NC =  1.27
+   IRB =  1e+30
+   RBM =  0
+   XTF =  0
+   VTF =  1e+30
+   ITF =  0
+   PTF =  0
+   XCJC =  1
+   VJS =  0.75
+   MJS =  0
+   XTB =  0
+   EG =  1.11
+   XTI =  3
+   KF =  0
+   AF =  1
+   FC =  0.5
+   TNOM =  27
)

.MODEL BC414BP NPN (
+   IS =  1.8e-14
+   BF =  400
+   BR =  35.5
+   RB =  0.56
+   RE =  0.6
+   RC =  0.25
+   CJS =  0
+   CJE =  1.3e-11
+   CJC =  4e-12
+   VJE =  0.75
+   VJC =  0.54
+   TF =  6.4e-10
+   TR =  5.072e-08
+   MJE =  0.33
+   MJC =  0.33
+   VA =  80
+   ISE =  5e-14
+   IKF =  0.14
+   NE =  1.46
+   NF =  0.9955
+   NR =  1.005
+   VAR =  12.5
+   IKR =  0.03
+   ISC =  1.72e-13
+   NC =  1.27
+   IRB =  1e+30
+   RBM =  0
+   XTF =  0
+   VTF =  1e+30
+   ITF =  0
+   PTF =  0
+   XCJC =  1
+   VJS =  0.75
+   MJS =  0
+   XTB =  0
+   EG =  1.11
+   XTI =  3
+   KF =  0
+   AF =  1
+   FC =  0.5
+   TNOM =  27
)

.MODEL BC546BP NPN (
+   IS =  1.8e-14
+   BF =  400
+   BR =  35.5
+   RB =  0.56
+   RE =  0.6
+   RC =  0.25
+   CJS =  0
+   CJE =  1.3e-11
+   CJC =  4e-12
+   VJE =  0.75
+   VJC =  0.54
+   TF =  6.4e-10
+   TR =  5.072e-08
+   MJE =  0.33
+   MJC =  0.33
+   VA =  80
+   ISE =  5e-14
+   IKF =  0.14
+   NE =  1.46
+   NF =  0.9955
+   NR =  1.005
+   VAR =  12.5
+   IKR =  0.03
+   ISC =  1.72e-13
+   NC =  1.27
+   IRB =  1e+30
+   RBM =  0
+   XTF =  0
+   VTF =  1e+30
+   ITF =  0
+   PTF =  0
+   XCJC =  1
+   VJS =  0.75
+   MJS =  0
+   XTB =  0
+   EG =  1.11
+   XTI =  3
+   KF =  0
+   AF =  1
+   FC =  0.5
+   TNOM =  27
)

.MODEL BC547BP NPN (
+   IS =  1.8e-14
+   BF =  400
+   BR =  35.5
+   RB =  0.56
+   RE =  0.6
+   RC =  0.25
+   CJS =  0
+   CJE =  1.3e-11
+   CJC =  4e-12
+   VJE =  0.75
+   VJC =  0.54
+   TF =  6.4e-10
+   TR =  5.072e-08
+   MJE =  0.33
+   MJC =  0.33
+   VA =  80
+   ISE =  5e-14
+   IKF =  0.14
+   NE =  1.46
+   NF =  0.9955
+   NR =  1.005
+   VAR =  12.5
+   IKR =  0.03
+   ISC =  1.72e-13
+   NC =  1.27
+   IRB =  1e+30
+   RBM =  0
+   XTF =  0
+   VTF =  1e+30
+   ITF =  0
+   PTF =  0
+   XCJC =  1
+   VJS =  0.75
+   MJS =  0
+   XTB =  0
+   EG =  1.11
+   XTI =  3
+   KF =  0
+   AF =  1
+   FC =  0.5
+   TNOM =  27
)

.MODEL BC548BP NPN (
+   IS =  1.8e-14
+   BF =  400
+   BR =  35.5
+   RB =  0.56
+   RE =  0.6
+   RC =  0.25
+   CJS =  0
+   CJE =  1.3e-11
+   CJC =  4e-12
+   VJE =  0.75
+   VJC =  0.54
+   TF =  6.4e-10
+   TR =  5.072e-08
+   MJE =  0.33
+   MJC =  0.33
+   VA =  80
+   ISE =  5e-14
+   IKF =  0.14
+   NE =  1.46
+   NF =  0.9955
+   NR =  1.005
+   VAR =  12.5
+   IKR =  0.03
+   ISC =  1.72e-13
+   NC =  1.27
+   IRB =  1e+30
+   RBM =  0
+   XTF =  0
+   VTF =  1e+30
+   ITF =  0
+   PTF =  0
+   XCJC =  1
+   VJS =  0.75
+   MJS =  0
+   XTB =  0
+   EG =  1.11
+   XTI =  3
+   KF =  0
+   AF =  1
+   FC =  0.5
+   TNOM =  27
)

.MODEL BC549BP NPN (
+   IS =  1.8e-14
+   BF =  400
+   BR =  35.5
+   RB =  0.56
+   RE =  0.6
+   RC =  0.25
+   CJS =  0
+   CJE =  1.3e-11
+   CJC =  4e-12
+   VJE =  0.75
+   VJC =  0.54
+   TF =  6.4e-10
+   TR =  5.072e-08
+   MJE =  0.33
+   MJC =  0.33
+   VA =  80
+   ISE =  5e-14
+   IKF =  0.14
+   NE =  1.46
+   NF =  0.9955
+   NR =  1.005
+   VAR =  12.5
+   IKR =  0.03
+   ISC =  1.72e-13
+   NC =  1.27
+   IRB =  1e+30
+   RBM =  0
+   XTF =  0
+   VTF =  1e+30
+   ITF =  0
+   PTF =  0
+   XCJC =  1
+   VJS =  0.75
+   MJS =  0
+   XTB =  0
+   EG =  1.11
+   XTI =  3
+   KF =  0
+   AF =  1
+   FC =  0.5
+   TNOM =  27
)

.MODEL BC550BP NPN (
+   IS =  1.8e-14
+   BF =  400
+   BR =  35.5
+   RB =  0.56
+   RE =  0.6
+   RC =  0.25
+   CJS =  0
+   CJE =  1.3e-11
+   CJC =  4e-12
+   VJE =  0.75
+   VJC =  0.54
+   TF =  6.4e-10
+   TR =  5.072e-08
+   MJE =  0.33
+   MJC =  0.33
+   VA =  80
+   ISE =  5e-14
+   IKF =  0.14
+   NE =  1.46
+   NF =  0.9955
+   NR =  1.005
+   VAR =  12.5
+   IKR =  0.03
+   ISC =  1.72e-13
+   NC =  1.27
+   IRB =  1e+30
+   RBM =  0
+   XTF =  0
+   VTF =  1e+30
+   ITF =  0
+   PTF =  0
+   XCJC =  1
+   VJS =  0.75
+   MJS =  0
+   XTB =  0
+   EG =  1.11
+   XTI =  3
+   KF =  0
+   AF =  1
+   FC =  0.5
+   TNOM =  27
)

.MODEL BC846B NPN (
+   IS =  1.8e-14
+   BF =  400
+   BR =  35.5
+   RB =  0.56
+   RE =  0.6
+   RC =  0.25
+   CJS =  0
+   CJE =  1.3e-11
+   CJC =  4e-12
+   VJE =  0.75
+   VJC =  0.54
+   TF =  6.4e-10
+   TR =  5.072e-08
+   MJE =  0.33
+   MJC =  0.33
+   VA =  80
+   ISE =  5e-14
+   IKF =  0.14
+   NE =  1.46
+   NF =  0.9955
+   NR =  1.005
+   VAR =  12.5
+   IKR =  0.03
+   ISC =  1.72e-13
+   NC =  1.27
+   IRB =  1e+30
+   RBM =  0
+   XTF =  0
+   VTF =  1e+30
+   ITF =  0
+   PTF =  0
+   XCJC =  1
+   VJS =  0.75
+   MJS =  0
+   XTB =  0
+   EG =  1.11
+   XTI =  3
+   KF =  0
+   AF =  1
+   FC =  0.5
+   TNOM =  27
)

.MODEL BC847B NPN (
+   IS =  1.8e-14
+   BF =  400
+   BR =  35.5
+   RB =  0.56
+   RE =  0.6
+   RC =  0.25
+   CJS =  0
+   CJE =  1.3e-11
+   CJC =  4e-12
+   VJE =  0.75
+   VJC =  0.54
+   TF =  6.4e-10
+   TR =  5.072e-08
+   MJE =  0.33
+   MJC =  0.33
+   VA =  80
+   ISE =  5e-14
+   IKF =  0.14
+   NE =  1.46
+   NF =  0.9955
+   NR =  1.005
+   VAR =  12.5
+   IKR =  0.03
+   ISC =  1.72e-13
+   NC =  1.27
+   IRB =  1e+30
+   RBM =  0
+   XTF =  0
+   VTF =  1e+30
+   ITF =  0
+   PTF =  0
+   XCJC =  1
+   VJS =  0.75
+   MJS =  0
+   XTB =  0
+   EG =  1.11
+   XTI =  3
+   KF =  0
+   AF =  1
+   FC =  0.5
+   TNOM =  27
)

.MODEL BC848B NPN (
+   IS =  1.8e-14
+   BF =  400
+   BR =  35.5
+   RB =  0.56
+   RE =  0.6
+   RC =  0.25
+   CJS =  0
+   CJE =  1.3e-11
+   CJC =  4e-12
+   VJE =  0.75
+   VJC =  0.54
+   TF =  6.4e-10
+   TR =  5.072e-08
+   MJE =  0.33
+   MJC =  0.33
+   VA =  80
+   ISE =  5e-14
+   IKF =  0.14
+   NE =  1.46
+   NF =  0.9955
+   NR =  1.005
+   VAR =  12.5
+   IKR =  0.03
+   ISC =  1.72e-13
+   NC =  1.27
+   IRB =  1e+30
+   RBM =  0
+   XTF =  0
+   VTF =  1e+30
+   ITF =  0
+   PTF =  0
+   XCJC =  1
+   VJS =  0.75
+   MJS =  0
+   XTB =  0
+   EG =  1.11
+   XTI =  3
+   KF =  0
+   AF =  1
+   FC =  0.5
+   TNOM =  27
)

.MODEL BC849B NPN (
+   IS =  1.8e-14
+   BF =  400
+   BR =  35.5
+   RB =  0.56
+   RE =  0.6
+   RC =  0.25
+   CJS =  0
+   CJE =  1.3e-11
+   CJC =  4e-12
+   VJE =  0.75
+   VJC =  0.54
+   TF =  6.4e-10
+   TR =  5.072e-08
+   MJE =  0.33
+   MJC =  0.33
+   VA =  80
+   ISE =  5e-14
+   IKF =  0.14
+   NE =  1.46
+   NF =  0.9955
+   NR =  1.005
+   VAR =  12.5
+   IKR =  0.03
+   ISC =  1.72e-13
+   NC =  1.27
+   IRB =  1e+30
+   RBM =  0
+   XTF =  0
+   VTF =  1e+30
+   ITF =  0
+   PTF =  0
+   XCJC =  1
+   VJS =  0.75
+   MJS =  0
+   XTB =  0
+   EG =  1.11
+   XTI =  3
+   KF =  0
+   AF =  1
+   FC =  0.5
+   TNOM =  27
)

.MODEL BC850B NPN (
+   IS =  1.8e-14
+   BF =  400
+   BR =  35.5
+   RB =  0.56
+   RE =  0.6
+   RC =  0.25
+   CJS =  0
+   CJE =  1.3e-11
+   CJC =  4e-12
+   VJE =  0.75
+   VJC =  0.54
+   TF =  6.4e-10
+   TR =  5.072e-08
+   MJE =  0.33
+   MJC =  0.33
+   VA =  80
+   ISE =  5e-14
+   IKF =  0.14
+   NE =  1.46
+   NF =  0.9955
+   NR =  1.005
+   VAR =  12.5
+   IKR =  0.03
+   ISC =  1.72e-13
+   NC =  1.27
+   IRB =  1e+30
+   RBM =  0
+   XTF =  0
+   VTF =  1e+30
+   ITF =  0
+   PTF =  0
+   XCJC =  1
+   VJS =  0.75
+   MJS =  0
+   XTB =  0
+   EG =  1.11
+   XTI =  3
+   KF =  0
+   AF =  1
+   FC =  0.5
+   TNOM =  27
)

.MODEL BCV72 NPN (
+   IS =  1.8e-14
+   BF =  400
+   BR =  35.5
+   RB =  0.56
+   RE =  0.6
+   RC =  0.25
+   CJS =  0
+   CJE =  1.3e-11
+   CJC =  4e-12
+   VJE =  0.75
+   VJC =  0.54
+   TF =  6.4e-10
+   TR =  5.072e-08
+   MJE =  0.33
+   MJC =  0.33
+   VA =  80
+   ISE =  5e-14
+   IKF =  0.14
+   NE =  1.46
+   NF =  0.9955
+   NR =  1.005
+   VAR =  12.5
+   IKR =  0.03
+   ISC =  1.72e-13
+   NC =  1.27
+   IRB =  1e+30
+   RBM =  0
+   XTF =  0
+   VTF =  1e+30
+   ITF =  0
+   PTF =  0
+   XCJC =  1
+   VJS =  0.75
+   MJS =  0
+   XTB =  0
+   EG =  1.11
+   XTI =  3
+   KF =  0
+   AF =  1
+   FC =  0.5
+   TNOM =  27
)

.MODEL BCW32 NPN (
+   IS =  1.8e-14
+   BF =  400
+   BR =  35.5
+   RB =  0.56
+   RE =  0.6
+   RC =  0.25
+   CJS =  0
+   CJE =  1.3e-11
+   CJC =  4e-12
+   VJE =  0.75
+   VJC =  0.54
+   TF =  6.4e-10
+   TR =  5.072e-08
+   MJE =  0.33
+   MJC =  0.33
+   VA =  80
+   ISE =  5e-14
+   IKF =  0.14
+   NE =  1.46
+   NF =  0.9955
+   NR =  1.005
+   VAR =  12.5
+   IKR =  0.03
+   ISC =  1.72e-13
+   NC =  1.27
+   IRB =  1e+30
+   RBM =  0
+   XTF =  0
+   VTF =  1e+30
+   ITF =  0
+   PTF =  0
+   XCJC =  1
+   VJS =  0.75
+   MJS =  0
+   XTB =  0
+   EG =  1.11
+   XTI =  3
+   KF =  0
+   AF =  1
+   FC =  0.5
+   TNOM =  27
)

.MODEL BCW60C NPN (
+   IS =  1.8e-14
+   BF =  400
+   BR =  35.5
+   RB =  0.56
+   RE =  0.6
+   RC =  0.25
+   CJS =  0
+   CJE =  1.3e-11
+   CJC =  4e-12
+   VJE =  0.75
+   VJC =  0.54
+   TF =  6.4e-10
+   TR =  5.072e-08
+   MJE =  0.33
+   MJC =  0.33
+   VA =  80
+   ISE =  5e-14
+   IKF =  0.14
+   NE =  1.46
+   NF =  0.9955
+   NR =  1.005
+   VAR =  12.5
+   IKR =  0.03
+   ISC =  1.72e-13
+   NC =  1.27
+   IRB =  1e+30
+   RBM =  0
+   XTF =  0
+   VTF =  1e+30
+   ITF =  0
+   PTF =  0
+   XCJC =  1
+   VJS =  0.75
+   MJS =  0
+   XTB =  0
+   EG =  1.11
+   XTI =  3
+   KF =  0
+   AF =  1
+   FC =  0.5
+   TNOM =  27
)

.MODEL BCW65A NPN (
+   IS =  3.94144e-14
+   BF =  175
+   BR =  20.5
+   RB =  1.1
+   RE =  0.1259
+   RC =  0.0539
+   CJS =  0
+   CJE =  6.3e-11
+   CJC =  1.58e-11
+   VJE =  0.75
+   VJC =  0.505
+   TF =  7.5e-10
+   TR =  8.5e-08
+   MJE =  0.33
+   MJC =  0.39
+   VA =  109.45
+   ISE =  7.4025e-15
+   IKF =  0.8
+   NE =  1.3
+   NF =  1
+   NR =  0.974
+   VAR =  14.25
+   IKR =  0.1
+   ISC =  3.157e-13
+   NC =  1.2
+   IRB =  1e+30
+   RBM =  0
+   XTF =  0
+   VTF =  1e+30
+   ITF =  0
+   PTF =  0
+   XCJC =  1
+   VJS =  0.75
+   MJS =  0
+   XTB =  0
+   EG =  1.11
+   XTI =  3
+   KF =  0
+   AF =  1
+   FC =  0.5
+   TNOM =  27
)

.MODEL BCW66F NPN (
+   IS =  3.94144e-14
+   BF =  175
+   BR =  20.5
+   RB =  1.1
+   RE =  0.1259
+   RC =  0.0539
+   CJS =  0
+   CJE =  6.3e-11
+   CJC =  1.58e-11
+   VJE =  0.75
+   VJC =  0.505
+   TF =  7.5e-10
+   TR =  8.5e-08
+   MJE =  0.33
+   MJC =  0.39
+   VA =  109.45
+   ISE =  7.4025e-15
+   IKF =  0.8
+   NE =  1.3
+   NF =  1
+   NR =  0.974
+   VAR =  14.25
+   IKR =  0.1
+   ISC =  3.157e-13
+   NC =  1.2
+   IRB =  1e+30
+   RBM =  0
+   XTF =  0
+   VTF =  1e+30
+   ITF =  0
+   PTF =  0
+   XCJC =  1
+   VJS =  0.75
+   MJS =  0
+   XTB =  0
+   EG =  1.11
+   XTI =  3
+   KF =  0
+   AF =  1
+   FC =  0.5
+   TNOM =  27
)

.MODEL BCW72 NPN (
+   IS =  1.8e-14
+   BF =  400
+   BR =  35.5
+   RB =  0.56
+   RE =  0.6
+   RC =  0.25
+   CJS =  0
+   CJE =  1.3e-11
+   CJC =  4e-12
+   VJE =  0.75
+   VJC =  0.54
+   TF =  6.4e-10
+   TR =  5.072e-08
+   MJE =  0.33
+   MJC =  0.33
+   VA =  80
+   ISE =  5e-14
+   IKF =  0.14
+   NE =  1.46
+   NF =  0.9955
+   NR =  1.005
+   VAR =  12.5
+   IKR =  0.03
+   ISC =  1.72e-13
+   NC =  1.27
+   IRB =  1e+30
+   RBM =  0
+   XTF =  0
+   VTF =  1e+30
+   ITF =  0
+   PTF =  0
+   XCJC =  1
+   VJS =  0.75
+   MJS =  0
+   XTB =  0
+   EG =  1.11
+   XTI =  3
+   KF =  0
+   AF =  1
+   FC =  0.5
+   TNOM =  27
)

.SUBCKT BCX38B 1 2 3
*              C B E
Q1 1 2 4 SUB38B
Q2 1 4 3 SUB38B 12.75
*
.MODEL SUB38B NPN IS =1.1E-14 ISE=7.1E-15 NF =1.012 NE =1.4758 BF =147 IKF=.12
+BR =15 IKR=.05 RE =1.3 RC =.5 RB =.3 VAF=150 CJE=14.5E-12 CJC=4.14E-12
+VJC=.515 MJC=.26 TF =1.15E-9 TR =75E-9
.ENDS BCX38B


.MODEL BCX70J NPN (
+   IS =  1.8e-14
+   BF =  400
+   BR =  35.5
+   RB =  0.56
+   RE =  0.6
+   RC =  0.25
+   CJS =  0
+   CJE =  1.3e-11
+   CJC =  4e-12
+   VJE =  0.75
+   VJC =  0.54
+   TF =  6.4e-10
+   TR =  5.072e-08
+   MJE =  0.33
+   MJC =  0.33
+   VA =  80
+   ISE =  5e-14
+   IKF =  0.14
+   NE =  1.46
+   NF =  0.9955
+   NR =  1.005
+   VAR =  12.5
+   IKR =  0.03
+   ISC =  1.72e-13
+   NC =  1.27
+   IRB =  1e+30
+   RBM =  0
+   XTF =  0
+   VTF =  1e+30
+   ITF =  0
+   PTF =  0
+   XCJC =  1
+   VJS =  0.75
+   MJS =  0
+   XTB =  0
+   EG =  1.11
+   XTI =  3
+   KF =  0
+   AF =  1
+   FC =  0.5
+   TNOM =  27
)

.MODEL BFQ31 NPN (
+   IS =  1.73e-13
+   BF =  200
+   BR =  3.124
+   RB =  17
+   RE =  2.13
+   RC =  30
+   CJS =  0
+   CJE =  2.27e-12
+   CJC =  1.2e-12
+   VJE =  0.75
+   VJC =  0.415
+   TF =  2e-10
+   TR =  1e-09
+   MJE =  0.33
+   MJC =  0.145
+   VA =  90
+   ISE =  2.41e-10
+   IKF =  0.0088
+   NE =  1.701
+   NF =  1
+   NR =  0.9705
+   VAR =  9.7
+   IKR =  0.02
+   ISC =  8.31e-13
+   NC =  1.112
+   IRB =  1e+30
+   RBM =  0
+   XTF =  0
+   VTF =  1e+30
+   ITF =  0
+   PTF =  0
+   XCJC =  1
+   VJS =  0.75
+   MJS =  0
+   XTB =  0
+   EG =  1.11
+   XTI =  3
+   KF =  0
+   AF =  1
+   FC =  0.5
+   TNOM =  27
)

.MODEL BFS17 NPN (
+   IS =  4.9e-16
+   BF =  93
+   BR =  25
+   RB =  7
+   RE =  0.5
+   RC =  2
+   CJS =  0
+   CJE =  1.18e-12
+   CJC =  1.54e-12
+   VJE =  1.12
+   VJC =  0.559
+   TF =  5e-11
+   TR =  2.4e-08
+   MJE =  0.4
+   MJC =  0.25
+   VA =  90
+   ISE =  1e-14
+   IKF =  0.055
+   NE =  1.8
+   NF =  0.993
+   NR =  1.005
+   VAR =  6
+   IKR =  0.01
+   ISC =  4.5e-15
+   NC =  1.2
+   IRB =  0.0005
+   RBM =  0.5
+   XTF =  100
+   VTF =  1e+30
+   ITF =  2.3
+   PTF =  0
+   XCJC =  1
+   VJS =  0.75
+   MJS =  0
+   XTB =  0
+   EG =  1.11
+   XTI =  3
+   KF =  0
+   AF =  1
+   FC =  0.5
+   TNOM =  27
)

.MODEL BFS60 NPN (
+   IS =  3.94144e-14
+   BF =  175
+   BR =  20.5
+   RB =  1.1
+   RE =  0.1259
+   RC =  0.0539
+   CJS =  0
+   CJE =  6.3e-11
+   CJC =  1.58e-11
+   VJE =  0.75
+   VJC =  0.505
+   TF =  7.5e-10
+   TR =  8.5e-08
+   MJE =  0.33
+   MJC =  0.39
+   VA =  109.45
+   ISE =  7.4025e-15
+   IKF =  0.8
+   NE =  1.3
+   NF =  1
+   NR =  0.974
+   VAR =  14.25
+   IKR =  0.1
+   ISC =  3.157e-13
+   NC =  1.2
+   IRB =  1e+30
+   RBM =  0
+   XTF =  0
+   VTF =  1e+30
+   ITF =  0
+   PTF =  0
+   XCJC =  1
+   VJS =  0.75
+   MJS =  0
+   XTB =  0
+   EG =  1.11
+   XTI =  3
+   KF =  0
+   AF =  1
+   FC =  0.5
+   TNOM =  27
)

.MODEL FCX458 NPN (
+   IS =  5.32679e-14
+   BF =  190
+   BR =  16.3
+   RB =  0.5
+   RE =  0.224
+   RC =  0.134
+   CJS =  0
+   CJE =  1.22e-10
+   CJC =  8.5e-12
+   VJE =  0.75
+   VJC =  0.4332
+   TF =  1.66e-09
+   TR =  8e-06
+   MJE =  0.33
+   MJC =  0.3966
+   VA =  1050
+   ISE =  2.1e-14
+   IKF =  0.075
+   NE =  1.385
+   NF =  0.992
+   NR =  1.05
+   VAR =  99
+   IKR =  1.8
+   ISC =  6.42e-12
+   NC =  1.25
+   IRB =  1e+30
+   RBM =  0
+   XTF =  0
+   VTF =  1e+30
+   ITF =  0
+   PTF =  0
+   XCJC =  1
+   VJS =  0.75
+   MJS =  0
+   XTB =  0
+   EG =  1.11
+   XTI =  3
+   KF =  0
+   AF =  1
+   FC =  0.5
+   TNOM =  27
)

.MODEL FCX649 NPN (
+   IS =  3e-13
+   BF =  225
+   BR =  110
+   RB =  0.3
+   RE =  0.063
+   RC =  0.07
+   CJS =  0
+   CJE =  3.25e-10
+   CJC =  7e-11
+   VJE =  0.75
+   VJC =  0.75
+   TF =  1e-09
+   TR =  1e-08
+   MJE =  0.33
+   MJC =  0.33
+   VA =  80
+   ISE =  1.1e-13
+   IKF =  2.8
+   NE =  1.37
+   NF =  1
+   NR =  0.972
+   VAR =  28
+   IKR =  0.8
+   ISC =  6.5e-13
+   NC =  1.372
+   IRB =  1e+30
+   RBM =  0
+   XTF =  0
+   VTF =  1e+30
+   ITF =  0
+   PTF =  0
+   XCJC =  1
+   VJS =  0.75
+   MJS =  0
+   XTB =  0
+   EG =  1.11
+   XTI =  3
+   KF =  0
+   AF =  1
+   FC =  0.5
+   TNOM =  27
)

.SUBCKT FMMT38B 1 2 3
*               C B E
Q1 1 2 4 SUB38B
Q2 1 4 3 SUB38B 12.75
*
.MODEL SUB38B NPN IS =1.1E-14 ISE=7.1E-15 NF =1.012 NE =1.4758 BF =147 IKF=.12
+BR =15 IKR=.05 RE =1.3 RC =.5 RB =.3 VAF=150 CJE=14.5E-12 CJC=4.14E-12
+VJC=.515 MJC=.26 TF =1.15E-9 TR =75E-9
.ENDS FMMT38B


.MODEL FMMT489 NPN (
+   IS =  1.04e-13
+   BF =  195
+   BR =  140
+   RB =  0.3
+   RE =  0.065
+   RC =  0.11
+   CJS =  0
+   CJE =  1.22e-10
+   CJC =  2.537e-11
+   VJE =  0.7631
+   VJC =  0.464
+   TF =  8.6e-10
+   TR =  1.25e-08
+   MJE =  0.3412
+   MJC =  0.3281
+   VA =  160
+   ISE =  1.83e-14
+   IKF =  1.9
+   NE =  1.35
+   NF =  1
+   NR =  1
+   VAR =  30
+   IKR =  0.5
+   ISC =  6e-12
+   NC =  1.5
+   IRB =  1e+30
+   RBM =  0
+   XTF =  0
+   VTF =  1e+30
+   ITF =  0
+   PTF =  0
+   XCJC =  1
+   VJS =  0.75
+   MJS =  0
+   XTB =  0
+   EG =  1.11
+   XTI =  3
+   KF =  0
+   AF =  1
+   FC =  0.5
+   TNOM =  27
)

.MODEL FMMT491A NPN (
+   IS =  3.05e-13
+   BF =  650
+   BR =  120
+   RB =  0.065
+   RE =  0.109
+   RC =  0.075
+   CJS =  0
+   CJE =  9.6e-11
+   CJC =  1.72e-11
+   VJE =  0.75
+   VJC =  0.4298
+   TF =  7.1e-10
+   TR =  2.5e-09
+   MJE =  0.33
+   MJC =  0.3429
+   VA =  165
+   ISE =  8.0191e-14
+   IKF =  0.8
+   NE =  1.4126
+   NF =  1.0034
+   NR =  1.001
+   VAR =  69
+   IKR =  0.6
+   ISC =  1.6e-12
+   NC =  1.38
+   IRB =  1e+30
+   RBM =  0
+   XTF =  0
+   VTF =  1e+30
+   ITF =  0
+   PTF =  0
+   XCJC =  1
+   VJS =  0.75
+   MJS =  0
+   XTB =  0
+   EG =  1.11
+   XTI =  3
+   KF =  0
+   AF =  1
+   FC =  0.5
+   TNOM =  27
)

.MODEL FMMT5179 NPN (
+   IS =  5.6e-16
+   BF =  133
+   BR =  8
+   RB =  5
+   RE =  0.65
+   RC =  1.8
+   CJS =  0
+   CJE =  1.012e-12
+   CJC =  1.197e-12
+   VJE =  1.195
+   VJC =  0.5617
+   TF =  0
+   TR =  0
+   MJE =  0.4496
+   MJC =  0.2588
+   VA =  40
+   ISE =  6.367e-15
+   IKF =  0.025
+   NE =  1.75
+   NF =  1
+   NR =  0.99
+   VAR =  6
+   IKR =  0.01
+   ISC =  1e-15
+   NC =  1.167
+   IRB =  0.0005
+   RBM =  0.5
+   XTF =  0
+   VTF =  1e+30
+   ITF =  0
+   PTF =  0
+   XCJC =  1
+   VJS =  0.75
+   MJS =  0
+   XTB =  0
+   EG =  1.11
+   XTI =  3
+   KF =  0
+   AF =  1
+   FC =  0.5
+   TNOM =  27
)

.MODEL FMMT617 NPN (
+   IS =  5.92e-13
+   BF =  500
+   BR =  280
+   RB =  0.1
+   RE =  0.025
+   RC =  0.017
+   CJS =  0
+   CJE =  2.3e-10
+   CJC =  7.6e-11
+   VJE =  0.7042
+   VJC =  0.4414
+   TF =  1.12e-09
+   TR =  2.15e-09
+   MJE =  0.3569
+   MJC =  0.2981
+   VA =  34.6
+   ISE =  1.27e-13
+   IKF =  5
+   NE =  1.425
+   NF =  1
+   NR =  1
+   VAR =  12.25
+   IKR =  2
+   ISC =  6.138e-13
+   NC =  1.46
+   IRB =  1e+30
+   RBM =  0
+   XTF =  0
+   VTF =  1e+30
+   ITF =  0
+   PTF =  0
+   XCJC =  1
+   VJS =  0.75
+   MJS =  0
+   XTB =  0
+   EG =  1.11
+   XTI =  3
+   KF =  0
+   AF =  1
+   FC =  0.5
+   TNOM =  27
)

.MODEL FMMT618 NPN (
+   IS =  5.611e-13
+   BF =  480
+   BR =  200
+   RB =  0.032
+   RE =  0.027
+   RC =  0.025
+   CJS =  0
+   CJE =  2.16e-10
+   CJC =  5.9e-11
+   VJE =  0.75
+   VJC =  0.3051
+   TF =  9.5e-10
+   TR =  2.25e-09
+   MJE =  0.33
+   MJC =  0.2651
+   VA =  51
+   ISE =  1.73e-13
+   IKF =  4.6
+   NE =  1.4
+   NF =  1.0022
+   NR =  1.0002
+   VAR =  25
+   IKR =  3
+   ISC =  7.3152e-13
+   NC =  1.47
+   IRB =  1e+30
+   RBM =  0
+   XTF =  0
+   VTF =  1e+30
+   ITF =  0
+   PTF =  0
+   XCJC =  1
+   VJS =  0.75
+   MJS =  0
+   XTB =  0
+   EG =  1.11
+   XTI =  3
+   KF =  0
+   AF =  1
+   FC =  0.5
+   TNOM =  27
)

.MODEL FMMT619 NPN (
+   IS =  5.8032e-13
+   BF =  485
+   BR =  110
+   RB =  0.042
+   RE =  0.033
+   RC =  0.0375
+   CJS =  0
+   CJE =  2.17e-10
+   CJC =  4e-11
+   VJE =  0.75
+   VJC =  0.4347
+   TF =  7.8e-10
+   TR =  9e-09
+   MJE =  0.33
+   MJC =  0.3708
+   VA =  84
+   ISE =  1.5933e-13
+   IKF =  2.2
+   NE =  1.4148
+   NF =  1.0027
+   NR =  1.0006
+   VAR =  51
+   IKR =  1.4
+   ISC =  5e-12
+   NC =  1.45
+   IRB =  1e+30
+   RBM =  0
+   XTF =  0
+   VTF =  1e+30
+   ITF =  0
+   PTF =  0
+   XCJC =  1
+   VJS =  0.75
+   MJS =  0
+   XTB =  0
+   EG =  1.11
+   XTI =  3
+   KF =  0
+   AF =  1
+   FC =  0.5
+   TNOM =  27
)

.MODEL FMMT624 NPN (
+   IS =  6.855e-13
+   BF =  540
+   BR =  100
+   RB =  0.036
+   RE =  0.065
+   RC =  0.1
+   CJS =  0
+   CJE =  2.07e-10
+   CJC =  2.8e-11
+   VJE =  0.75
+   VJC =  0.4934
+   TF =  8.5e-10
+   TR =  4.9e-08
+   MJE =  0.33
+   MJC =  0.4348
+   VA =  231
+   ISE =  2.23e-13
+   IKF =  0.95
+   NE =  1.4195
+   NF =  1.0037
+   NR =  1.0024
+   VAR =  61
+   IKR =  2
+   ISC =  3e-12
+   NC =  1.2276
+   IRB =  1e+30
+   RBM =  0
+   XTF =  0
+   VTF =  1e+30
+   ITF =  0
+   PTF =  0
+   XCJC =  1
+   VJS =  0.75
+   MJS =  0
+   XTB =  0
+   EG =  1.11
+   XTI =  3
+   KF =  0
+   AF =  1
+   FC =  0.5
+   TNOM =  27
)

.MODEL FMMT625 NPN (
+   IS =  6.2024e-13
+   BF =  450
+   BR =  250
+   RB =  0.036
+   RE =  0.09
+   RC =  0.143
+   CJS =  0
+   CJE =  2.1e-10
+   CJC =  2.45e-11
+   VJE =  0.75
+   VJC =  0.4425
+   TF =  9.9e-10
+   TR =  6e-08
+   MJE =  0.33
+   MJC =  0.4246
+   VA =  428
+   ISE =  2.3242e-13
+   IKF =  0.6
+   NE =  1.4689
+   NF =  1.0037
+   NR =  1.0033
+   VAR =  73
+   IKR =  1.7
+   ISC =  7.66e-13
+   NC =  1.1546
+   IRB =  1e+30
+   RBM =  0
+   XTF =  0
+   VTF =  1e+30
+   ITF =  0
+   PTF =  0
+   XCJC =  1
+   VJS =  0.75
+   MJS =  0
+   XTB =  0
+   EG =  1.11
+   XTI =  3
+   KF =  0
+   AF =  1
+   FC =  0.5
+   TNOM =  27
)

.MODEL FMMT918 NPN (
+   IS =  1.73e-13
+   BF =  200
+   BR =  3.124
+   RB =  17
+   RE =  2.13
+   RC =  30
+   CJS =  0
+   CJE =  2.27e-12
+   CJC =  1.2e-12
+   VJE =  0.75
+   VJC =  0.415
+   TF =  2e-10
+   TR =  1e-09
+   MJE =  0.33
+   MJC =  0.145
+   VA =  90
+   ISE =  2.41e-10
+   IKF =  0.0088
+   NE =  1.701
+   NF =  1
+   NR =  0.9705
+   VAR =  9.7
+   IKR =  0.02
+   ISC =  8.31e-13
+   NC =  1.112
+   IRB =  1e+30
+   RBM =  0
+   XTF =  0
+   VTF =  1e+30
+   ITF =  0
+   PTF =  0
+   XCJC =  1
+   VJS =  0.75
+   MJS =  0
+   XTB =  0
+   EG =  1.11
+   XTI =  3
+   KF =  0
+   AF =  1
+   FC =  0.5
+   TNOM =  27
)

.MODEL FMMTA20 NPN (
+   IS =  1.8e-14
+   BF =  400
+   BR =  35.5
+   RB =  0.56
+   RE =  0.6
+   RC =  0.25
+   CJS =  0
+   CJE =  1.3e-11
+   CJC =  4e-12
+   VJE =  0.75
+   VJC =  0.54
+   TF =  6.4e-10
+   TR =  5.072e-08
+   MJE =  0.33
+   MJC =  0.33
+   VA =  80
+   ISE =  5e-14
+   IKF =  0.14
+   NE =  1.46
+   NF =  0.9955
+   NR =  1.005
+   VAR =  12.5
+   IKR =  0.03
+   ISC =  1.72e-13
+   NC =  1.27
+   IRB =  1e+30
+   RBM =  0
+   XTF =  0
+   VTF =  1e+30
+   ITF =  0
+   PTF =  0
+   XCJC =  1
+   VJS =  0.75
+   MJS =  0
+   XTB =  0
+   EG =  1.11
+   XTI =  3
+   KF =  0
+   AF =  1
+   FC =  0.5
+   TNOM =  27
)

.MODEL FMMTH10 NPN (
+   IS =  5.6e-16
+   BF =  133
+   BR =  8
+   RB =  5
+   RE =  0.65