
.MODEL ideal NMOS (
+   VTO =  0
+   KP =  0.02
+   LAMBDA =  0
+   PHI =  0.6
+   GAMMA =  0
+   RD =  0
+   RS =  0
+   IS =  1e-14
+   CGBO =  5e-12
+   CGDO =  5e-12
+   CGSO =  5e-12
+   CBD =  5e-12
+   CBS =  5e-12
+   PB =  0.8
+   RSH =  0
+   CJ =  0
+   MJ =  0.5
+   CJSW =  0
+   MJSW =  0.5
+   JS =  0
+   TOX =  1e-07
+   NSUB =  0
+   NSS =  0
+   TPG =  1
+   LD =  0
+   U0 =  600
+   KF =  0
+   AF =  1
+   FC =  0.5
+   TNOM =  27
)
